build/X86/sim/debug.cc:89: warn: need to stop all queues
Global frequency set at 1000000000000 ticks per second
build/X86/mem/dram_interface.cc:690: warn: DRAM device capacity (8192 Mbytes) does not match the address range assigned (512 Mbytes)
0: system.remote_gdb: listening for remote gdb on port 7000
gem5 Simulator System.  https://www.gem5.org
gem5 is copyrighted software; use the --copyright option for details.

gem5 version 22.0.0.2
gem5 compiled Nov 29 2022 19:19:23
gem5 started Dec  6 2022 22:02:14
gem5 executing on csel-atlas, pid 1908344
command line: /export/scratch/users/huan2618/gem5/build/X86/gem5.opt --debug-flags=CacheTags --debug-start=1095334000 --debug-break=1095339000 simple_sys.py

/home/huan2618/Desktop/spectre_simulation/visualization/demo
Beginning simulation!
build/X86/sim/simulate.cc:194: info: Entering event queue @ 0.  Starting simulation...
build/X86/sim/mem_state.cc:443: info: Increasing stack size by one page.
build/X86/sim/syscall_emul.cc:74: warn: ignoring syscall mprotect(...)
build/X86/sim/syscall_emul.cc:74: warn: ignoring syscall mprotect(...)
build/X86/sim/syscall_emul.cc:74: warn: ignoring syscall mprotect(...)
hit time in this machine is 28
misstime in this machine is 92
1095334000: system.cpu.icache: recvTimingReq tags:
	Block: state: 6 (E) writable: 1 readable: 1 dirty: 0 prefetched: 0 | tag: 0x58 secure: 0 valid: 1 | set: 0 way: 0
	Block: state: 6 (E) writable: 1 readable: 1 dirty: 0 prefetched: 0 | tag: 0x57 secure: 0 valid: 1 | set: 0 way: 0x1
	Block: state: 6 (E) writable: 1 readable: 1 dirty: 0 prefetched: 0 | tag: 0x5b secure: 0 valid: 1 | set: 0x1 way: 0
	Block: state: 6 (E) writable: 1 readable: 1 dirty: 0 prefetched: 0 | tag: 0x58 secure: 0 valid: 1 | set: 0x1 way: 0x1
	Block: state: 6 (E) writable: 1 readable: 1 dirty: 0 prefetched: 0 | tag: 0x57 secure: 0 valid: 1 | set: 0x2 way: 0
	Block: state: 6 (E) writable: 1 readable: 1 dirty: 0 prefetched: 0 | tag: 0x59 secure: 0 valid: 1 | set: 0x2 way: 0x1
	Block: state: 6 (E) writable: 1 readable: 1 dirty: 0 prefetched: 0 | tag: 0x59 secure: 0 valid: 1 | set: 0x3 way: 0
	Block: state: 6 (E) writable: 1 readable: 1 dirty: 0 prefetched: 0 | tag: 0x53 secure: 0 valid: 1 | set: 0x3 way: 0x1
	Block: state: 6 (E) writable: 1 readable: 1 dirty: 0 prefetched: 0 | tag: 0x59 secure: 0 valid: 1 | set: 0x4 way: 0
	Block: state: 6 (E) writable: 1 readable: 1 dirty: 0 prefetched: 0 | tag: 0x53 secure: 0 valid: 1 | set: 0x4 way: 0x1
	Block: state: 6 (E) writable: 1 readable: 1 dirty: 0 prefetched: 0 | tag: 0x53 secure: 0 valid: 1 | set: 0x5 way: 0
	Block: state: 6 (E) writable: 1 readable: 1 dirty: 0 prefetched: 0 | tag: 0x1b secure: 0 valid: 1 | set: 0x5 way: 0x1
	Block: state: 6 (E) writable: 1 readable: 1 dirty: 0 prefetched: 0 | tag: 0x53 secure: 0 valid: 1 | set: 0x6 way: 0
	Block: state: 6 (E) writable: 1 readable: 1 dirty: 0 prefetched: 0 | tag: 0x1b secure: 0 valid: 1 | set: 0x6 way: 0x1
	Block: state: 6 (E) writable: 1 readable: 1 dirty: 0 prefetched: 0 | tag: 0x1b secure: 0 valid: 1 | set: 0x7 way: 0
	Block: state: 6 (E) writable: 1 readable: 1 dirty: 0 prefetched: 0 | tag: 0x53 secure: 0 valid: 1 | set: 0x7 way: 0x1
	Block: state: 6 (E) writable: 1 readable: 1 dirty: 0 prefetched: 0 | tag: 0x54 secure: 0 valid: 1 | set: 0x8 way: 0
	Block: state: 6 (E) writable: 1 readable: 1 dirty: 0 prefetched: 0 | tag: 0x53 secure: 0 valid: 1 | set: 0x8 way: 0x1
	Block: state: 6 (E) writable: 1 readable: 1 dirty: 0 prefetched: 0 | tag: 0x53 secure: 0 valid: 1 | set: 0x9 way: 0
	Block: state: 6 (E) writable: 1 readable: 1 dirty: 0 prefetched: 0 | tag: 0x54 secure: 0 valid: 1 | set: 0x9 way: 0x1
	Block: state: 6 (E) writable: 1 readable: 1 dirty: 0 prefetched: 0 | tag: 0x1c secure: 0 valid: 1 | set: 0xa way: 0
	Block: state: 6 (E) writable: 1 readable: 1 dirty: 0 prefetched: 0 | tag: 0x54 secure: 0 valid: 1 | set: 0xa way: 0x1
	Block: state: 6 (E) writable: 1 readable: 1 dirty: 0 prefetched: 0 | tag: 0x1c secure: 0 valid: 1 | set: 0xb way: 0
	Block: state: 6 (E) writable: 1 readable: 1 dirty: 0 prefetched: 0 | tag: 0x1f secure: 0 valid: 1 | set: 0xb way: 0x1
	Block: state: 6 (E) writable: 1 readable: 1 dirty: 0 prefetched: 0 | tag: 0x4b secure: 0 valid: 1 | set: 0xc way: 0
	Block: state: 6 (E) writable: 1 readable: 1 dirty: 0 prefetched: 0 | tag: 0x18 secure: 0 valid: 1 | set: 0xc way: 0x1
	Block: state: 6 (E) writable: 1 readable: 1 dirty: 0 prefetched: 0 | tag: 0x4b secure: 0 valid: 1 | set: 0xd way: 0
	Block: state: 6 (E) writable: 1 readable: 1 dirty: 0 prefetched: 0 | tag: 0x18 secure: 0 valid: 1 | set: 0xd way: 0x1
	Block: state: 6 (E) writable: 1 readable: 1 dirty: 0 prefetched: 0 | tag: 0x18 secure: 0 valid: 1 | set: 0xe way: 0
	Block: state: 6 (E) writable: 1 readable: 1 dirty: 0 prefetched: 0 | tag: 0x4b secure: 0 valid: 1 | set: 0xe way: 0x1
	Block: state: 6 (E) writable: 1 readable: 1 dirty: 0 prefetched: 0 | tag: 0x54 secure: 0 valid: 1 | set: 0xf way: 0
	Block: state: 6 (E) writable: 1 readable: 1 dirty: 0 prefetched: 0 | tag: 0x4b secure: 0 valid: 1 | set: 0xf way: 0x1
	Block: state: 6 (E) writable: 1 readable: 1 dirty: 0 prefetched: 0 | tag: 0x4b secure: 0 valid: 1 | set: 0x10 way: 0
	Block: state: 6 (E) writable: 1 readable: 1 dirty: 0 prefetched: 0 | tag: 0x54 secure: 0 valid: 1 | set: 0x10 way: 0x1
	Block: state: 6 (E) writable: 1 readable: 1 dirty: 0 prefetched: 0 | tag: 0x4b secure: 0 valid: 1 | set: 0x11 way: 0
	Block: state: 6 (E) writable: 1 readable: 1 dirty: 0 prefetched: 0 | tag: 0x54 secure: 0 valid: 1 | set: 0x11 way: 0x1
	Block: state: 6 (E) writable: 1 readable: 1 dirty: 0 prefetched: 0 | tag: 0x54 secure: 0 valid: 1 | set: 0x12 way: 0
	Block: state: 6 (E) writable: 1 readable: 1 dirty: 0 prefetched: 0 | tag: 0x4b secure: 0 valid: 1 | set: 0x12 way: 0x1
	Block: state: 6 (E) writable: 1 readable: 1 dirty: 0 prefetched: 0 | tag: 0x4b secure: 0 valid: 1 | set: 0x13 way: 0
	Block: state: 6 (E) writable: 1 readable: 1 dirty: 0 prefetched: 0 | tag: 0x54 secure: 0 valid: 1 | set: 0x13 way: 0x1
	Block: state: 6 (E) writable: 1 readable: 1 dirty: 0 prefetched: 0 | tag: 0x4b secure: 0 valid: 1 | set: 0x14 way: 0
	Block: state: 6 (E) writable: 1 readable: 1 dirty: 0 prefetched: 0 | tag: 0x58 secure: 0 valid: 1 | set: 0x14 way: 0x1
	Block: state: 6 (E) writable: 1 readable: 1 dirty: 0 prefetched: 0 | tag: 0x58 secure: 0 valid: 1 | set: 0x15 way: 0
	Block: state: 6 (E) writable: 1 readable: 1 dirty: 0 prefetched: 0 | tag: 0x18 secure: 0 valid: 1 | set: 0x15 way: 0x1
	Block: state: 6 (E) writable: 1 readable: 1 dirty: 0 prefetched: 0 | tag: 0x4b secure: 0 valid: 1 | set: 0x16 way: 0
	Block: state: 6 (E) writable: 1 readable: 1 dirty: 0 prefetched: 0 | tag: 0x58 secure: 0 valid: 1 | set: 0x16 way: 0x1
	Block: state: 6 (E) writable: 1 readable: 1 dirty: 0 prefetched: 0 | tag: 0x58 secure: 0 valid: 1 | set: 0x17 way: 0
	Block: state: 6 (E) writable: 1 readable: 1 dirty: 0 prefetched: 0 | tag: 0x4b secure: 0 valid: 1 | set: 0x17 way: 0x1
	Block: state: 6 (E) writable: 1 readable: 1 dirty: 0 prefetched: 0 | tag: 0x4b secure: 0 valid: 1 | set: 0x18 way: 0
	Block: state: 6 (E) writable: 1 readable: 1 dirty: 0 prefetched: 0 | tag: 0x58 secure: 0 valid: 1 | set: 0x18 way: 0x1
	Block: state: 6 (E) writable: 1 readable: 1 dirty: 0 prefetched: 0 | tag: 0x58 secure: 0 valid: 1 | set: 0x19 way: 0
	Block: state: 6 (E) writable: 1 readable: 1 dirty: 0 prefetched: 0 | tag: 0x4b secure: 0 valid: 1 | set: 0x19 way: 0x1
	Block: state: 6 (E) writable: 1 readable: 1 dirty: 0 prefetched: 0 | tag: 0x22 secure: 0 valid: 1 | set: 0x1a way: 0
	Block: state: 6 (E) writable: 1 readable: 1 dirty: 0 prefetched: 0 | tag: 0x58 secure: 0 valid: 1 | set: 0x1a way: 0x1
	Block: state: 6 (E) writable: 1 readable: 1 dirty: 0 prefetched: 0 | tag: 0x22 secure: 0 valid: 1 | set: 0x1b way: 0
	Block: state: 6 (E) writable: 1 readable: 1 dirty: 0 prefetched: 0 | tag: 0x58 secure: 0 valid: 1 | set: 0x1b way: 0x1
	Block: state: 6 (E) writable: 1 readable: 1 dirty: 0 prefetched: 0 | tag: 0x58 secure: 0 valid: 1 | set: 0x1c way: 0
	Block: state: 6 (E) writable: 1 readable: 1 dirty: 0 prefetched: 0 | tag: 0x54 secure: 0 valid: 1 | set: 0x1c way: 0x1
	Block: state: 6 (E) writable: 1 readable: 1 dirty: 0 prefetched: 0 | tag: 0x58 secure: 0 valid: 1 | set: 0x1d way: 0
	Block: state: 6 (E) writable: 1 readable: 1 dirty: 0 prefetched: 0 | tag: 0x54 secure: 0 valid: 1 | set: 0x1d way: 0x1
	Block: state: 6 (E) writable: 1 readable: 1 dirty: 0 prefetched: 0 | tag: 0x58 secure: 0 valid: 1 | set: 0x1e way: 0
	Block: state: 6 (E) writable: 1 readable: 1 dirty: 0 prefetched: 0 | tag: 0x54 secure: 0 valid: 1 | set: 0x1e way: 0x1
	Block: state: 6 (E) writable: 1 readable: 1 dirty: 0 prefetched: 0 | tag: 0x54 secure: 0 valid: 1 | set: 0x1f way: 0
	Block: state: 6 (E) writable: 1 readable: 1 dirty: 0 prefetched: 0 | tag: 0x58 secure: 0 valid: 1 | set: 0x1f way: 0x1
	Block: state: 6 (E) writable: 1 readable: 1 dirty: 0 prefetched: 0 | tag: 0x58 secure: 0 valid: 1 | set: 0x20 way: 0
	Block: state: 6 (E) writable: 1 readable: 1 dirty: 0 prefetched: 0 | tag: 0x18 secure: 0 valid: 1 | set: 0x20 way: 0x1
	Block: state: 6 (E) writable: 1 readable: 1 dirty: 0 prefetched: 0 | tag: 0x46 secure: 0 valid: 1 | set: 0x21 way: 0
	Block: state: 6 (E) writable: 1 readable: 1 dirty: 0 prefetched: 0 | tag: 0x18 secure: 0 valid: 1 | set: 0x21 way: 0x1
	Block: state: 6 (E) writable: 1 readable: 1 dirty: 0 prefetched: 0 | tag: 0x50 secure: 0 valid: 1 | set: 0x22 way: 0
	Block: state: 6 (E) writable: 1 readable: 1 dirty: 0 prefetched: 0 | tag: 0x18 secure: 0 valid: 1 | set: 0x22 way: 0x1
	Block: state: 6 (E) writable: 1 readable: 1 dirty: 0 prefetched: 0 | tag: 0x50 secure: 0 valid: 1 | set: 0x23 way: 0
	Block: state: 6 (E) writable: 1 readable: 1 dirty: 0 prefetched: 0 | tag: 0x46 secure: 0 valid: 1 | set: 0x23 way: 0x1
	Block: state: 6 (E) writable: 1 readable: 1 dirty: 0 prefetched: 0 | tag: 0x58 secure: 0 valid: 1 | set: 0x24 way: 0
	Block: state: 6 (E) writable: 1 readable: 1 dirty: 0 prefetched: 0 | tag: 0x50 secure: 0 valid: 1 | set: 0x24 way: 0x1
	Block: state: 6 (E) writable: 1 readable: 1 dirty: 0 prefetched: 0 | tag: 0x58 secure: 0 valid: 1 | set: 0x25 way: 0
	Block: state: 6 (E) writable: 1 readable: 1 dirty: 0 prefetched: 0 | tag: 0x50 secure: 0 valid: 1 | set: 0x25 way: 0x1
	Block: state: 6 (E) writable: 1 readable: 1 dirty: 0 prefetched: 0 | tag: 0x50 secure: 0 valid: 1 | set: 0x26 way: 0
	Block: state: 6 (E) writable: 1 readable: 1 dirty: 0 prefetched: 0 | tag: 0x58 secure: 0 valid: 1 | set: 0x26 way: 0x1
	Block: state: 6 (E) writable: 1 readable: 1 dirty: 0 prefetched: 0 | tag: 0x54 secure: 0 valid: 1 | set: 0x27 way: 0
	Block: state: 6 (E) writable: 1 readable: 1 dirty: 0 prefetched: 0 | tag: 0x50 secure: 0 valid: 1 | set: 0x27 way: 0x1
	Block: state: 6 (E) writable: 1 readable: 1 dirty: 0 prefetched: 0 | tag: 0x49 secure: 0 valid: 1 | set: 0x28 way: 0
	Block: state: 6 (E) writable: 1 readable: 1 dirty: 0 prefetched: 0 | tag: 0x19 secure: 0 valid: 1 | set: 0x28 way: 0x1
	Block: state: 6 (E) writable: 1 readable: 1 dirty: 0 prefetched: 0 | tag: 0x19 secure: 0 valid: 1 | set: 0x29 way: 0
	Block: state: 6 (E) writable: 1 readable: 1 dirty: 0 prefetched: 0 | tag: 0x49 secure: 0 valid: 1 | set: 0x29 way: 0x1
	Block: state: 6 (E) writable: 1 readable: 1 dirty: 0 prefetched: 0 | tag: 0x49 secure: 0 valid: 1 | set: 0x2a way: 0
	Block: state: 6 (E) writable: 1 readable: 1 dirty: 0 prefetched: 0 | tag: 0x19 secure: 0 valid: 1 | set: 0x2a way: 0x1
	Block: state: 6 (E) writable: 1 readable: 1 dirty: 0 prefetched: 0 | tag: 0x19 secure: 0 valid: 1 | set: 0x2b way: 0
	Block: state: 6 (E) writable: 1 readable: 1 dirty: 0 prefetched: 0 | tag: 0x49 secure: 0 valid: 1 | set: 0x2b way: 0x1
	Block: state: 6 (E) writable: 1 readable: 1 dirty: 0 prefetched: 0 | tag: 0x53 secure: 0 valid: 1 | set: 0x2c way: 0
	Block: state: 6 (E) writable: 1 readable: 1 dirty: 0 prefetched: 0 | tag: 0x1b secure: 0 valid: 1 | set: 0x2c way: 0x1
	Block: state: 6 (E) writable: 1 readable: 1 dirty: 0 prefetched: 0 | tag: 0x53 secure: 0 valid: 1 | set: 0x2d way: 0
	Block: state: 6 (E) writable: 1 readable: 1 dirty: 0 prefetched: 0 | tag: 0x1b secure: 0 valid: 1 | set: 0x2d way: 0x1
	Block: state: 6 (E) writable: 1 readable: 1 dirty: 0 prefetched: 0 | tag: 0x55 secure: 0 valid: 1 | set: 0x2e way: 0
	Block: state: 6 (E) writable: 1 readable: 1 dirty: 0 prefetched: 0 | tag: 0x53 secure: 0 valid: 1 | set: 0x2e way: 0x1
	Block: state: 6 (E) writable: 1 readable: 1 dirty: 0 prefetched: 0 | tag: 0x53 secure: 0 valid: 1 | set: 0x2f way: 0
	Block: state: 6 (E) writable: 1 readable: 1 dirty: 0 prefetched: 0 | tag: 0x1b secure: 0 valid: 1 | set: 0x2f way: 0x1
	Block: state: 6 (E) writable: 1 readable: 1 dirty: 0 prefetched: 0 | tag: 0x1b secure: 0 valid: 1 | set: 0x30 way: 0
	Block: state: 6 (E) writable: 1 readable: 1 dirty: 0 prefetched: 0 | tag: 0x53 secure: 0 valid: 1 | set: 0x30 way: 0x1
	Block: state: 6 (E) writable: 1 readable: 1 dirty: 0 prefetched: 0 | tag: 0x53 secure: 0 valid: 1 | set: 0x31 way: 0
	Block: state: 6 (E) writable: 1 readable: 1 dirty: 0 prefetched: 0 | tag: 0x51 secure: 0 valid: 1 | set: 0x31 way: 0x1
	Block: state: 6 (E) writable: 1 readable: 1 dirty: 0 prefetched: 0 | tag: 0x53 secure: 0 valid: 1 | set: 0x32 way: 0
	Block: state: 6 (E) writable: 1 readable: 1 dirty: 0 prefetched: 0 | tag: 0x4e secure: 0 valid: 1 | set: 0x32 way: 0x1
	Block: state: 6 (E) writable: 1 readable: 1 dirty: 0 prefetched: 0 | tag: 0x4e secure: 0 valid: 1 | set: 0x33 way: 0
	Block: state: 6 (E) writable: 1 readable: 1 dirty: 0 prefetched: 0 | tag: 0x51 secure: 0 valid: 1 | set: 0x33 way: 0x1
	Block: state: 6 (E) writable: 1 readable: 1 dirty: 0 prefetched: 0 | tag: 0x59 secure: 0 valid: 1 | set: 0x34 way: 0
	Block: state: 6 (E) writable: 1 readable: 1 dirty: 0 prefetched: 0 | tag: 0x4e secure: 0 valid: 1 | set: 0x34 way: 0x1
	Block: state: 6 (E) writable: 1 readable: 1 dirty: 0 prefetched: 0 | tag: 0x59 secure: 0 valid: 1 | set: 0x35 way: 0
	Block: state: 6 (E) writable: 1 readable: 1 dirty: 0 prefetched: 0 | tag: 0x4e secure: 0 valid: 1 | set: 0x35 way: 0x1
	Block: state: 6 (E) writable: 1 readable: 1 dirty: 0 prefetched: 0 | tag: 0x50 secure: 0 valid: 1 | set: 0x36 way: 0
	Block: state: 6 (E) writable: 1 readable: 1 dirty: 0 prefetched: 0 | tag: 0x51 secure: 0 valid: 1 | set: 0x36 way: 0x1
	Block: state: 6 (E) writable: 1 readable: 1 dirty: 0 prefetched: 0 | tag: 0x50 secure: 0 valid: 1 | set: 0x37 way: 0
	Block: state: 6 (E) writable: 1 readable: 1 dirty: 0 prefetched: 0 | tag: 0x19 secure: 0 valid: 1 | set: 0x37 way: 0x1
	Block: state: 4 (S) writable: 0 readable: 1 dirty: 0 prefetched: 0 | tag: 0x2a secure: 0 valid: 1 | set: 0x38 way: 0
	Block: state: 6 (E) writable: 1 readable: 1 dirty: 0 prefetched: 0 | tag: 0x50 secure: 0 valid: 1 | set: 0x38 way: 0x1
	Block: state: 6 (E) writable: 1 readable: 1 dirty: 0 prefetched: 0 | tag: 0x50 secure: 0 valid: 1 | set: 0x39 way: 0
	Block: state: 6 (E) writable: 1 readable: 1 dirty: 0 prefetched: 0 | tag: 0x19 secure: 0 valid: 1 | set: 0x39 way: 0x1
	Block: state: 6 (E) writable: 1 readable: 1 dirty: 0 prefetched: 0 | tag: 0x19 secure: 0 valid: 1 | set: 0x3a way: 0
	Block: state: 6 (E) writable: 1 readable: 1 dirty: 0 prefetched: 0 | tag: 0x50 secure: 0 valid: 1 | set: 0x3a way: 0x1
	Block: state: 6 (E) writable: 1 readable: 1 dirty: 0 prefetched: 0 | tag: 0x1a secure: 0 valid: 1 | set: 0x3b way: 0
	Block: state: 6 (E) writable: 1 readable: 1 dirty: 0 prefetched: 0 | tag: 0x19 secure: 0 valid: 1 | set: 0x3b way: 0x1
	Block: state: 6 (E) writable: 1 readable: 1 dirty: 0 prefetched: 0 | tag: 0x49 secure: 0 valid: 1 | set: 0x3c way: 0
	Block: state: 6 (E) writable: 1 readable: 1 dirty: 0 prefetched: 0 | tag: 0x50 secure: 0 valid: 1 | set: 0x3c way: 0x1
	Block: state: 6 (E) writable: 1 readable: 1 dirty: 0 prefetched: 0 | tag: 0x49 secure: 0 valid: 1 | set: 0x3d way: 0
	Block: state: 6 (E) writable: 1 readable: 1 dirty: 0 prefetched: 0 | tag: 0x50 secure: 0 valid: 1 | set: 0x3d way: 0x1
	Block: state: 6 (E) writable: 1 readable: 1 dirty: 0 prefetched: 0 | tag: 0x1f secure: 0 valid: 1 | set: 0x3e way: 0
	Block: state: 6 (E) writable: 1 readable: 1 dirty: 0 prefetched: 0 | tag: 0x49 secure: 0 valid: 1 | set: 0x3e way: 0x1
	Block: state: 6 (E) writable: 1 readable: 1 dirty: 0 prefetched: 0 | tag: 0x18 secure: 0 valid: 1 | set: 0x3f way: 0
	Block: state: 6 (E) writable: 1 readable: 1 dirty: 0 prefetched: 0 | tag: 0x49 secure: 0 valid: 1 | set: 0x3f way: 0x1
	Block: state: 6 (E) writable: 1 readable: 1 dirty: 0 prefetched: 0 | tag: 0 secure: 0 valid: 1 | set: 0x40 way: 0
	Block: state: 6 (E) writable: 1 readable: 1 dirty: 0 prefetched: 0 | tag: 0x19 secure: 0 valid: 1 | set: 0x40 way: 0x1
	Block: state: 6 (E) writable: 1 readable: 1 dirty: 0 prefetched: 0 | tag: 0x13 secure: 0 valid: 1 | set: 0x41 way: 0
	Block: state: 6 (E) writable: 1 readable: 1 dirty: 0 prefetched: 0 | tag: 0 secure: 0 valid: 1 | set: 0x41 way: 0x1
	Block: state: 6 (E) writable: 1 readable: 1 dirty: 0 prefetched: 0 | tag: 0 secure: 0 valid: 1 | set: 0x42 way: 0
	Block: state: 6 (E) writable: 1 readable: 1 dirty: 0 prefetched: 0 | tag: 0x22 secure: 0 valid: 1 | set: 0x42 way: 0x1
	Block: state: 6 (E) writable: 1 readable: 1 dirty: 0 prefetched: 0 | tag: 0x52 secure: 0 valid: 1 | set: 0x43 way: 0
	Block: state: 6 (E) writable: 1 readable: 1 dirty: 0 prefetched: 0 | tag: 0x18 secure: 0 valid: 1 | set: 0x43 way: 0x1
	Block: state: 6 (E) writable: 1 readable: 1 dirty: 0 prefetched: 0 | tag: 0x52 secure: 0 valid: 1 | set: 0x44 way: 0
	Block: state: 6 (E) writable: 1 readable: 1 dirty: 0 prefetched: 0 | tag: 0x18 secure: 0 valid: 1 | set: 0x44 way: 0x1
	Block: state: 6 (E) writable: 1 readable: 1 dirty: 0 prefetched: 0 | tag: 0x18 secure: 0 valid: 1 | set: 0x45 way: 0
	Block: state: 6 (E) writable: 1 readable: 1 dirty: 0 prefetched: 0 | tag: 0 secure: 0 valid: 1 | set: 0x45 way: 0x1
	Block: state: 6 (E) writable: 1 readable: 1 dirty: 0 prefetched: 0 | tag: 0x18 secure: 0 valid: 1 | set: 0x46 way: 0
	Block: state: 6 (E) writable: 1 readable: 1 dirty: 0 prefetched: 0 | tag: 0 secure: 0 valid: 1 | set: 0x46 way: 0x1
	Block: state: 6 (E) writable: 1 readable: 1 dirty: 0 prefetched: 0 | tag: 0x18 secure: 0 valid: 1 | set: 0x47 way: 0
	Block: state: 6 (E) writable: 1 readable: 1 dirty: 0 prefetched: 0 | tag: 0 secure: 0 valid: 1 | set: 0x47 way: 0x1
	Block: state: 6 (E) writable: 1 readable: 1 dirty: 0 prefetched: 0 | tag: 0x58 secure: 0 valid: 1 | set: 0x48 way: 0
	Block: state: 6 (E) writable: 1 readable: 1 dirty: 0 prefetched: 0 | tag: 0 secure: 0 valid: 1 | set: 0x48 way: 0x1
	Block: state: 6 (E) writable: 1 readable: 1 dirty: 0 prefetched: 0 | tag: 0x58 secure: 0 valid: 1 | set: 0x49 way: 0
	Block: state: 6 (E) writable: 1 readable: 1 dirty: 0 prefetched: 0 | tag: 0 secure: 0 valid: 1 | set: 0x49 way: 0x1
	Block: state: 6 (E) writable: 1 readable: 1 dirty: 0 prefetched: 0 | tag: 0 secure: 0 valid: 1 | set: 0x4a way: 0
	Block: state: 6 (E) writable: 1 readable: 1 dirty: 0 prefetched: 0 | tag: 0x58 secure: 0 valid: 1 | set: 0x4a way: 0x1
	Block: state: 6 (E) writable: 1 readable: 1 dirty: 0 prefetched: 0 | tag: 0x55 secure: 0 valid: 1 | set: 0x4b way: 0
	Block: state: 6 (E) writable: 1 readable: 1 dirty: 0 prefetched: 0 | tag: 0 secure: 0 valid: 1 | set: 0x4b way: 0x1
	Block: state: 6 (E) writable: 1 readable: 1 dirty: 0 prefetched: 0 | tag: 0 secure: 0 valid: 1 | set: 0x4c way: 0
	Block: state: 6 (E) writable: 1 readable: 1 dirty: 0 prefetched: 0 | tag: 0x54 secure: 0 valid: 1 | set: 0x4c way: 0x1
	Block: state: 6 (E) writable: 1 readable: 1 dirty: 0 prefetched: 0 | tag: 0 secure: 0 valid: 1 | set: 0x4d way: 0
	Block: state: 6 (E) writable: 1 readable: 1 dirty: 0 prefetched: 0 | tag: 0x54 secure: 0 valid: 1 | set: 0x4d way: 0x1
	Block: state: 6 (E) writable: 1 readable: 1 dirty: 0 prefetched: 0 | tag: 0 secure: 0 valid: 1 | set: 0x4e way: 0
	Block: state: 6 (E) writable: 1 readable: 1 dirty: 0 prefetched: 0 | tag: 0x54 secure: 0 valid: 1 | set: 0x4e way: 0x1
	Block: state: 6 (E) writable: 1 readable: 1 dirty: 0 prefetched: 0 | tag: 0x18 secure: 0 valid: 1 | set: 0x4f way: 0
	Block: state: 6 (E) writable: 1 readable: 1 dirty: 0 prefetched: 0 | tag: 0 secure: 0 valid: 1 | set: 0x4f way: 0x1
	Block: state: 6 (E) writable: 1 readable: 1 dirty: 0 prefetched: 0 | tag: 0 secure: 0 valid: 1 | set: 0x50 way: 0
	Block: state: 6 (E) writable: 1 readable: 1 dirty: 0 prefetched: 0 | tag: 0x58 secure: 0 valid: 1 | set: 0x50 way: 0x1
	Block: state: 6 (E) writable: 1 readable: 1 dirty: 0 prefetched: 0 | tag: 0x58 secure: 0 valid: 1 | set: 0x51 way: 0
	Block: state: 6 (E) writable: 1 readable: 1 dirty: 0 prefetched: 0 | tag: 0x53 secure: 0 valid: 1 | set: 0x51 way: 0x1
	Block: state: 6 (E) writable: 1 readable: 1 dirty: 0 prefetched: 0 | tag: 0x58 secure: 0 valid: 1 | set: 0x52 way: 0
	Block: state: 6 (E) writable: 1 readable: 1 dirty: 0 prefetched: 0 | tag: 0x53 secure: 0 valid: 1 | set: 0x52 way: 0x1
	Block: state: 6 (E) writable: 1 readable: 1 dirty: 0 prefetched: 0 | tag: 0x53 secure: 0 valid: 1 | set: 0x53 way: 0
	Block: state: 6 (E) writable: 1 readable: 1 dirty: 0 prefetched: 0 | tag: 0x19 secure: 0 valid: 1 | set: 0x53 way: 0x1
	Block: state: 6 (E) writable: 1 readable: 1 dirty: 0 prefetched: 0 | tag: 0x54 secure: 0 valid: 1 | set: 0x54 way: 0
	Block: state: 6 (E) writable: 1 readable: 1 dirty: 0 prefetched: 0 | tag: 0x53 secure: 0 valid: 1 | set: 0x54 way: 0x1
	Block: state: 6 (E) writable: 1 readable: 1 dirty: 0 prefetched: 0 | tag: 0x53 secure: 0 valid: 1 | set: 0x55 way: 0
	Block: state: 6 (E) writable: 1 readable: 1 dirty: 0 prefetched: 0 | tag: 0x54 secure: 0 valid: 1 | set: 0x55 way: 0x1
	Block: state: 6 (E) writable: 1 readable: 1 dirty: 0 prefetched: 0 | tag: 0x53 secure: 0 valid: 1 | set: 0x56 way: 0
	Block: state: 6 (E) writable: 1 readable: 1 dirty: 0 prefetched: 0 | tag: 0x54 secure: 0 valid: 1 | set: 0x56 way: 0x1
	Block: state: 6 (E) writable: 1 readable: 1 dirty: 0 prefetched: 0 | tag: 0x4f secure: 0 valid: 1 | set: 0x57 way: 0
	Block: state: 6 (E) writable: 1 readable: 1 dirty: 0 prefetched: 0 | tag: 0x59 secure: 0 valid: 1 | set: 0x57 way: 0x1
	Block: state: 6 (E) writable: 1 readable: 1 dirty: 0 prefetched: 0 | tag: 0x4f secure: 0 valid: 1 | set: 0x58 way: 0
	Block: state: 6 (E) writable: 1 readable: 1 dirty: 0 prefetched: 0 | tag: 0x59 secure: 0 valid: 1 | set: 0x58 way: 0x1
	Block: state: 6 (E) writable: 1 readable: 1 dirty: 0 prefetched: 0 | tag: 0x59 secure: 0 valid: 1 | set: 0x59 way: 0
	Block: state: 6 (E) writable: 1 readable: 1 dirty: 0 prefetched: 0 | tag: 0x4f secure: 0 valid: 1 | set: 0x59 way: 0x1
	Block: state: 6 (E) writable: 1 readable: 1 dirty: 0 prefetched: 0 | tag: 0x4b secure: 0 valid: 1 | set: 0x5a way: 0
	Block: state: 6 (E) writable: 1 readable: 1 dirty: 0 prefetched: 0 | tag: 0x4f secure: 0 valid: 1 | set: 0x5a way: 0x1
	Block: state: 6 (E) writable: 1 readable: 1 dirty: 0 prefetched: 0 | tag: 0x4b secure: 0 valid: 1 | set: 0x5b way: 0
	Block: state: 6 (E) writable: 1 readable: 1 dirty: 0 prefetched: 0 | tag: 0x4f secure: 0 valid: 1 | set: 0x5b way: 0x1
	Block: state: 6 (E) writable: 1 readable: 1 dirty: 0 prefetched: 0 | tag: 0x4b secure: 0 valid: 1 | set: 0x5c way: 0
	Block: state: 6 (E) writable: 1 readable: 1 dirty: 0 prefetched: 0 | tag: 0x4f secure: 0 valid: 1 | set: 0x5c way: 0x1
	Block: state: 6 (E) writable: 1 readable: 1 dirty: 0 prefetched: 0 | tag: 0x4b secure: 0 valid: 1 | set: 0x5d way: 0
	Block: state: 6 (E) writable: 1 readable: 1 dirty: 0 prefetched: 0 | tag: 0x4f secure: 0 valid: 1 | set: 0x5d way: 0x1
	Block: state: 6 (E) writable: 1 readable: 1 dirty: 0 prefetched: 0 | tag: 0x54 secure: 0 valid: 1 | set: 0x5e way: 0
	Block: state: 6 (E) writable: 1 readable: 1 dirty: 0 prefetched: 0 | tag: 0x4b secure: 0 valid: 1 | set: 0x5e way: 0x1
	Block: state: 6 (E) writable: 1 readable: 1 dirty: 0 prefetched: 0 | tag: 0x54 secure: 0 valid: 1 | set: 0x5f way: 0
	Block: state: 6 (E) writable: 1 readable: 1 dirty: 0 prefetched: 0 | tag: 0x4b secure: 0 valid: 1 | set: 0x5f way: 0x1
	Block: state: 6 (E) writable: 1 readable: 1 dirty: 0 prefetched: 0 | tag: 0x4f secure: 0 valid: 1 | set: 0x60 way: 0
	Block: state: 6 (E) writable: 1 readable: 1 dirty: 0 prefetched: 0 | tag: 0x4b secure: 0 valid: 1 | set: 0x60 way: 0x1
	Block: state: 6 (E) writable: 1 readable: 1 dirty: 0 prefetched: 0 | tag: 0x4e secure: 0 valid: 1 | set: 0x61 way: 0
	Block: state: 6 (E) writable: 1 readable: 1 dirty: 0 prefetched: 0 | tag: 0x4f secure: 0 valid: 1 | set: 0x61 way: 0x1
	Block: state: 6 (E) writable: 1 readable: 1 dirty: 0 prefetched: 0 | tag: 0x4e secure: 0 valid: 1 | set: 0x62 way: 0
	Block: state: 6 (E) writable: 1 readable: 1 dirty: 0 prefetched: 0 | tag: 0x54 secure: 0 valid: 1 | set: 0x62 way: 0x1
	Block: state: 6 (E) writable: 1 readable: 1 dirty: 0 prefetched: 0 | tag: 0x4e secure: 0 valid: 1 | set: 0x63 way: 0
	Block: state: 6 (E) writable: 1 readable: 1 dirty: 0 prefetched: 0 | tag: 0x4f secure: 0 valid: 1 | set: 0x63 way: 0x1
	Block: state: 6 (E) writable: 1 readable: 1 dirty: 0 prefetched: 0 | tag: 0x4f secure: 0 valid: 1 | set: 0x64 way: 0
	Block: state: 6 (E) writable: 1 readable: 1 dirty: 0 prefetched: 0 | tag: 0x4e secure: 0 valid: 1 | set: 0x64 way: 0x1
	Block: state: 6 (E) writable: 1 readable: 1 dirty: 0 prefetched: 0 | tag: 0x4b secure: 0 valid: 1 | set: 0x65 way: 0
	Block: state: 6 (E) writable: 1 readable: 1 dirty: 0 prefetched: 0 | tag: 0x4e secure: 0 valid: 1 | set: 0x65 way: 0x1
	Block: state: 6 (E) writable: 1 readable: 1 dirty: 0 prefetched: 0 | tag: 0x4e secure: 0 valid: 1 | set: 0x66 way: 0
	Block: state: 6 (E) writable: 1 readable: 1 dirty: 0 prefetched: 0 | tag: 0x4b secure: 0 valid: 1 | set: 0x66 way: 0x1
	Block: state: 6 (E) writable: 1 readable: 1 dirty: 0 prefetched: 0 | tag: 0x58 secure: 0 valid: 1 | set: 0x67 way: 0
	Block: state: 6 (E) writable: 1 readable: 1 dirty: 0 prefetched: 0 | tag: 0x4e secure: 0 valid: 1 | set: 0x67 way: 0x1
	Block: state: 6 (E) writable: 1 readable: 1 dirty: 0 prefetched: 0 | tag: 0x58 secure: 0 valid: 1 | set: 0x68 way: 0
	Block: state: 6 (E) writable: 1 readable: 1 dirty: 0 prefetched: 0 | tag: 0x4e secure: 0 valid: 1 | set: 0x68 way: 0x1
	Block: state: 6 (E) writable: 1 readable: 1 dirty: 0 prefetched: 0 | tag: 0x58 secure: 0 valid: 1 | set: 0x69 way: 0
	Block: state: 6 (E) writable: 1 readable: 1 dirty: 0 prefetched: 0 | tag: 0x4e secure: 0 valid: 1 | set: 0x69 way: 0x1
	Block: state: 6 (E) writable: 1 readable: 1 dirty: 0 prefetched: 0 | tag: 0x5a secure: 0 valid: 1 | set: 0x6a way: 0
	Block: state: 6 (E) writable: 1 readable: 1 dirty: 0 prefetched: 0 | tag: 0x4e secure: 0 valid: 1 | set: 0x6a way: 0x1
	Block: state: 6 (E) writable: 1 readable: 1 dirty: 0 prefetched: 0 | tag: 0x5a secure: 0 valid: 1 | set: 0x6b way: 0
	Block: state: 6 (E) writable: 1 readable: 1 dirty: 0 prefetched: 0 | tag: 0x4e secure: 0 valid: 1 | set: 0x6b way: 0x1
	Block: state: 6 (E) writable: 1 readable: 1 dirty: 0 prefetched: 0 | tag: 0x4e secure: 0 valid: 1 | set: 0x6c way: 0
	Block: state: 6 (E) writable: 1 readable: 1 dirty: 0 prefetched: 0 | tag: 0x54 secure: 0 valid: 1 | set: 0x6c way: 0x1
	Block: state: 6 (E) writable: 1 readable: 1 dirty: 0 prefetched: 0 | tag: 0x1e secure: 0 valid: 1 | set: 0x6d way: 0
	Block: state: 6 (E) writable: 1 readable: 1 dirty: 0 prefetched: 0 | tag: 0x4e secure: 0 valid: 1 | set: 0x6d way: 0x1
	Block: state: 6 (E) writable: 1 readable: 1 dirty: 0 prefetched: 0 | tag: 0x4e secure: 0 valid: 1 | set: 0x6e way: 0
	Block: state: 6 (E) writable: 1 readable: 1 dirty: 0 prefetched: 0 | tag: 0x54 secure: 0 valid: 1 | set: 0x6e way: 0x1
	Block: state: 6 (E) writable: 1 readable: 1 dirty: 0 prefetched: 0 | tag: 0x5a secure: 0 valid: 1 | set: 0x6f way: 0
	Block: state: 6 (E) writable: 1 readable: 1 dirty: 0 prefetched: 0 | tag: 0x4e secure: 0 valid: 1 | set: 0x6f way: 0x1
	Block: state: 6 (E) writable: 1 readable: 1 dirty: 0 prefetched: 0 | tag: 0x4e secure: 0 valid: 1 | set: 0x70 way: 0
	Block: state: 6 (E) writable: 1 readable: 1 dirty: 0 prefetched: 0 | tag: 0x5a secure: 0 valid: 1 | set: 0x70 way: 0x1
	Block: state: 6 (E) writable: 1 readable: 1 dirty: 0 prefetched: 0 | tag: 0x5a secure: 0 valid: 1 | set: 0x71 way: 0
	Block: state: 6 (E) writable: 1 readable: 1 dirty: 0 prefetched: 0 | tag: 0x4e secure: 0 valid: 1 | set: 0x71 way: 0x1
	Block: state: 6 (E) writable: 1 readable: 1 dirty: 0 prefetched: 0 | tag: 0x54 secure: 0 valid: 1 | set: 0x72 way: 0
	Block: state: 6 (E) writable: 1 readable: 1 dirty: 0 prefetched: 0 | tag: 0x4e secure: 0 valid: 1 | set: 0x72 way: 0x1
	Block: state: 6 (E) writable: 1 readable: 1 dirty: 0 prefetched: 0 | tag: 0x47 secure: 0 valid: 1 | set: 0x73 way: 0
	Block: state: 6 (E) writable: 1 readable: 1 dirty: 0 prefetched: 0 | tag: 0x23 secure: 0 valid: 1 | set: 0x73 way: 0x1
	Block: state: 6 (E) writable: 1 readable: 1 dirty: 0 prefetched: 0 | tag: 0x21 secure: 0 valid: 1 | set: 0x74 way: 0
	Block: state: 6 (E) writable: 1 readable: 1 dirty: 0 prefetched: 0 | tag: 0x47 secure: 0 valid: 1 | set: 0x74 way: 0x1
	Block: state: 6 (E) writable: 1 readable: 1 dirty: 0 prefetched: 0 | tag: 0x47 secure: 0 valid: 1 | set: 0x75 way: 0
	Block: state: 6 (E) writable: 1 readable: 1 dirty: 0 prefetched: 0 | tag: 0x23 secure: 0 valid: 1 | set: 0x75 way: 0x1
	Block: state: 6 (E) writable: 1 readable: 1 dirty: 0 prefetched: 0 | tag: 0x1e secure: 0 valid: 1 | set: 0x76 way: 0
	Block: state: 6 (E) writable: 1 readable: 1 dirty: 0 prefetched: 0 | tag: 0x47 secure: 0 valid: 1 | set: 0x76 way: 0x1
	Block: state: 6 (E) writable: 1 readable: 1 dirty: 0 prefetched: 0 | tag: 0x4c secure: 0 valid: 1 | set: 0x77 way: 0
	Block: state: 6 (E) writable: 1 readable: 1 dirty: 0 prefetched: 0 | tag: 0x54 secure: 0 valid: 1 | set: 0x77 way: 0x1
	Block: state: 6 (E) writable: 1 readable: 1 dirty: 0 prefetched: 0 | tag: 0x54 secure: 0 valid: 1 | set: 0x78 way: 0
	Block: state: 6 (E) writable: 1 readable: 1 dirty: 0 prefetched: 0 | tag: 0x50 secure: 0 valid: 1 | set: 0x78 way: 0x1
	Block: state: 6 (E) writable: 1 readable: 1 dirty: 0 prefetched: 0 | tag: 0x51 secure: 0 valid: 1 | set: 0x79 way: 0
	Block: state: 6 (E) writable: 1 readable: 1 dirty: 0 prefetched: 0 | tag: 0x50 secure: 0 valid: 1 | set: 0x79 way: 0x1
	Block: state: 6 (E) writable: 1 readable: 1 dirty: 0 prefetched: 0 | tag: 0x54 secure: 0 valid: 1 | set: 0x7a way: 0
	Block: state: 6 (E) writable: 1 readable: 1 dirty: 0 prefetched: 0 | tag: 0x51 secure: 0 valid: 1 | set: 0x7a way: 0x1
	Block: state: 6 (E) writable: 1 readable: 1 dirty: 0 prefetched: 0 | tag: 0x50 secure: 0 valid: 1 | set: 0x7b way: 0
	Block: state: 6 (E) writable: 1 readable: 1 dirty: 0 prefetched: 0 | tag: 0x51 secure: 0 valid: 1 | set: 0x7b way: 0x1
	Block: state: 6 (E) writable: 1 readable: 1 dirty: 0 prefetched: 0 | tag: 0x51 secure: 0 valid: 1 | set: 0x7c way: 0
	Block: state: 6 (E) writable: 1 readable: 1 dirty: 0 prefetched: 0 | tag: 0x50 secure: 0 valid: 1 | set: 0x7c way: 0x1
	Block: state: 6 (E) writable: 1 readable: 1 dirty: 0 prefetched: 0 | tag: 0x4e secure: 0 valid: 1 | set: 0x7d way: 0
	Block: state: 6 (E) writable: 1 readable: 1 dirty: 0 prefetched: 0 | tag: 0x54 secure: 0 valid: 1 | set: 0x7d way: 0x1
	Block: state: 6 (E) writable: 1 readable: 1 dirty: 0 prefetched: 0 | tag: 0x50 secure: 0 valid: 1 | set: 0x7e way: 0
	Block: state: 6 (E) writable: 1 readable: 1 dirty: 0 prefetched: 0 | tag: 0x4e secure: 0 valid: 1 | set: 0x7e way: 0x1
	Block: state: 6 (E) writable: 1 readable: 1 dirty: 0 prefetched: 0 | tag: 0x50 secure: 0 valid: 1 | set: 0x7f way: 0
	Block: state: 6 (E) writable: 1 readable: 1 dirty: 0 prefetched: 0 | tag: 0x4e secure: 0 valid: 1 | set: 0x7f way: 0x1

1095336000: system.cpu.dcache: recvTimingReq tags:
	Block: state: 6 (E) writable: 1 readable: 1 dirty: 0 prefetched: 0 | tag: 0xf secure: 0 valid: 1 | set: 0 way: 0
	Block: state: 4 (S) writable: 0 readable: 1 dirty: 0 prefetched: 0 | tag: 0 secure: 0 valid: 1 | set: 0 way: 0x1
	Block: state: 6 (E) writable: 1 readable: 1 dirty: 0 prefetched: 0 | tag: 0x10 secure: 0 valid: 1 | set: 0x1 way: 0
	Block: state: 6 (E) writable: 1 readable: 1 dirty: 0 prefetched: 0 | tag: 0xf secure: 0 valid: 1 | set: 0x1 way: 0x1
	Block: state: 6 (E) writable: 1 readable: 1 dirty: 0 prefetched: 0 | tag: 0x10 secure: 0 valid: 1 | set: 0x2 way: 0
	Block: state: 6 (E) writable: 1 readable: 1 dirty: 0 prefetched: 0 | tag: 0x11 secure: 0 valid: 1 | set: 0x2 way: 0x1
	Block: state: 6 (E) writable: 1 readable: 1 dirty: 0 prefetched: 0 | tag: 0x10 secure: 0 valid: 1 | set: 0x3 way: 0
	Block: state: 6 (E) writable: 1 readable: 1 dirty: 0 prefetched: 0 | tag: 0x11 secure: 0 valid: 1 | set: 0x3 way: 0x1
	Block: state: 6 (E) writable: 1 readable: 1 dirty: 0 prefetched: 0 | tag: 0xf secure: 0 valid: 1 | set: 0x4 way: 0
	Block: state: 6 (E) writable: 1 readable: 1 dirty: 0 prefetched: 0 | tag: 0x10 secure: 0 valid: 1 | set: 0x4 way: 0x1
	Block: state: 6 (E) writable: 1 readable: 1 dirty: 0 prefetched: 0 | tag: 0x11 secure: 0 valid: 1 | set: 0x5 way: 0
	Block: state: 6 (E) writable: 1 readable: 1 dirty: 0 prefetched: 0 | tag: 0x10 secure: 0 valid: 1 | set: 0x5 way: 0x1
	Block: state: 6 (E) writable: 1 readable: 1 dirty: 0 prefetched: 0 | tag: 0x10 secure: 0 valid: 1 | set: 0x6 way: 0
	Block: state: 6 (E) writable: 1 readable: 1 dirty: 0 prefetched: 0 | tag: 0x11 secure: 0 valid: 1 | set: 0x6 way: 0x1
	Block: state: 6 (E) writable: 1 readable: 1 dirty: 0 prefetched: 0 | tag: 0x10 secure: 0 valid: 1 | set: 0x7 way: 0
	Block: state: 6 (E) writable: 1 readable: 1 dirty: 0 prefetched: 0 | tag: 0x11 secure: 0 valid: 1 | set: 0x7 way: 0x1
	Block: state: 6 (E) writable: 1 readable: 1 dirty: 0 prefetched: 0 | tag: 0x10 secure: 0 valid: 1 | set: 0x8 way: 0
	Block: state: 6 (E) writable: 1 readable: 1 dirty: 0 prefetched: 0 | tag: 0x11 secure: 0 valid: 1 | set: 0x8 way: 0x1
	Block: state: 6 (E) writable: 1 readable: 1 dirty: 0 prefetched: 0 | tag: 0x10 secure: 0 valid: 1 | set: 0x9 way: 0
	Block: state: 6 (E) writable: 1 readable: 1 dirty: 0 prefetched: 0 | tag: 0x11 secure: 0 valid: 1 | set: 0x9 way: 0x1
	Block: state: 6 (E) writable: 1 readable: 1 dirty: 0 prefetched: 0 | tag: 0x10 secure: 0 valid: 1 | set: 0xa way: 0
	Block: state: 6 (E) writable: 1 readable: 1 dirty: 0 prefetched: 0 | tag: 0x11 secure: 0 valid: 1 | set: 0xa way: 0x1
	Block: state: 6 (E) writable: 1 readable: 1 dirty: 0 prefetched: 0 | tag: 0x10 secure: 0 valid: 1 | set: 0xb way: 0
	Block: state: 6 (E) writable: 1 readable: 1 dirty: 0 prefetched: 0 | tag: 0x11 secure: 0 valid: 1 | set: 0xb way: 0x1
	Block: state: 6 (E) writable: 1 readable: 1 dirty: 0 prefetched: 0 | tag: 0x11 secure: 0 valid: 1 | set: 0xc way: 0
	Block: state: 6 (E) writable: 1 readable: 1 dirty: 0 prefetched: 0 | tag: 0x10 secure: 0 valid: 1 | set: 0xc way: 0x1
	Block: state: 6 (E) writable: 1 readable: 1 dirty: 0 prefetched: 0 | tag: 0x11 secure: 0 valid: 1 | set: 0xd way: 0
	Block: state: 6 (E) writable: 1 readable: 1 dirty: 0 prefetched: 0 | tag: 0x10 secure: 0 valid: 1 | set: 0xd way: 0x1
	Block: state: 6 (E) writable: 1 readable: 1 dirty: 0 prefetched: 0 | tag: 0x10 secure: 0 valid: 1 | set: 0xe way: 0
	Block: state: 6 (E) writable: 1 readable: 1 dirty: 0 prefetched: 0 | tag: 0 secure: 0 valid: 1 | set: 0xe way: 0x1
	Block: state: 6 (E) writable: 1 readable: 1 dirty: 0 prefetched: 0 | tag: 0x11 secure: 0 valid: 1 | set: 0xf way: 0
	Block: state: 6 (E) writable: 1 readable: 1 dirty: 0 prefetched: 0 | tag: 0x10 secure: 0 valid: 1 | set: 0xf way: 0x1
	Block: state: 6 (E) writable: 1 readable: 1 dirty: 0 prefetched: 0 | tag: 0x10 secure: 0 valid: 1 | set: 0x10 way: 0
	Block: state: 6 (E) writable: 1 readable: 1 dirty: 0 prefetched: 0 | tag: 0x11 secure: 0 valid: 1 | set: 0x10 way: 0x1
	Block: state: 6 (E) writable: 1 readable: 1 dirty: 0 prefetched: 0 | tag: 0x10 secure: 0 valid: 1 | set: 0x11 way: 0
	Block: state: e (M) writable: 1 readable: 1 dirty: 1 prefetched: 0 | tag: 0xd secure: 0 valid: 1 | set: 0x11 way: 0x1
	Block: state: 6 (E) writable: 1 readable: 1 dirty: 0 prefetched: 0 | tag: 0x10 secure: 0 valid: 1 | set: 0x12 way: 0
	Block: state: e (M) writable: 1 readable: 1 dirty: 1 prefetched: 0 | tag: 0xd secure: 0 valid: 1 | set: 0x12 way: 0x1
	Block: state: e (M) writable: 1 readable: 1 dirty: 1 prefetched: 0 | tag: 0xd secure: 0 valid: 1 | set: 0x13 way: 0
	Block: state: 6 (E) writable: 1 readable: 1 dirty: 0 prefetched: 0 | tag: 0x10 secure: 0 valid: 1 | set: 0x13 way: 0x1
	Block: state: 6 (E) writable: 1 readable: 1 dirty: 0 prefetched: 0 | tag: 0x10 secure: 0 valid: 1 | set: 0x14 way: 0
	Block: state: 6 (E) writable: 1 readable: 1 dirty: 0 prefetched: 0 | tag: 0x11 secure: 0 valid: 1 | set: 0x14 way: 0x1
	Block: state: 6 (E) writable: 1 readable: 1 dirty: 0 prefetched: 0 | tag: 0x11 secure: 0 valid: 1 | set: 0x15 way: 0
	Block: state: 6 (E) writable: 1 readable: 1 dirty: 0 prefetched: 0 | tag: 0x10 secure: 0 valid: 1 | set: 0x15 way: 0x1
	Block: state: 6 (E) writable: 1 readable: 1 dirty: 0 prefetched: 0 | tag: 0x11 secure: 0 valid: 1 | set: 0x16 way: 0
	Block: state: 6 (E) writable: 1 readable: 1 dirty: 0 prefetched: 0 | tag: 0x10 secure: 0 valid: 1 | set: 0x16 way: 0x1
	Block: state: 6 (E) writable: 1 readable: 1 dirty: 0 prefetched: 0 | tag: 0x11 secure: 0 valid: 1 | set: 0x17 way: 0
	Block: state: 6 (E) writable: 1 readable: 1 dirty: 0 prefetched: 0 | tag: 0x10 secure: 0 valid: 1 | set: 0x17 way: 0x1
	Block: state: 6 (E) writable: 1 readable: 1 dirty: 0 prefetched: 0 | tag: 0x11 secure: 0 valid: 1 | set: 0x18 way: 0
	Block: state: 6 (E) writable: 1 readable: 1 dirty: 0 prefetched: 0 | tag: 0x10 secure: 0 valid: 1 | set: 0x18 way: 0x1
	Block: state: 6 (E) writable: 1 readable: 1 dirty: 0 prefetched: 0 | tag: 0x10 secure: 0 valid: 1 | set: 0x19 way: 0
	Block: state: 6 (E) writable: 1 readable: 1 dirty: 0 prefetched: 0 | tag: 0x11 secure: 0 valid: 1 | set: 0x19 way: 0x1
	Block: state: 6 (E) writable: 1 readable: 1 dirty: 0 prefetched: 0 | tag: 0x11 secure: 0 valid: 1 | set: 0x1a way: 0
	Block: state: 6 (E) writable: 1 readable: 1 dirty: 0 prefetched: 0 | tag: 0x10 secure: 0 valid: 1 | set: 0x1a way: 0x1
	Block: state: 6 (E) writable: 1 readable: 1 dirty: 0 prefetched: 0 | tag: 0x10 secure: 0 valid: 1 | set: 0x1b way: 0
	Block: state: 6 (E) writable: 1 readable: 1 dirty: 0 prefetched: 0 | tag: 0x11 secure: 0 valid: 1 | set: 0x1b way: 0x1
	Block: state: 6 (E) writable: 1 readable: 1 dirty: 0 prefetched: 0 | tag: 0x10 secure: 0 valid: 1 | set: 0x1c way: 0
	Block: state: 6 (E) writable: 1 readable: 1 dirty: 0 prefetched: 0 | tag: 0x11 secure: 0 valid: 1 | set: 0x1c way: 0x1
	Block: state: 6 (E) writable: 1 readable: 1 dirty: 0 prefetched: 0 | tag: 0x10 secure: 0 valid: 1 | set: 0x1d way: 0
	Block: state: 6 (E) writable: 1 readable: 1 dirty: 0 prefetched: 0 | tag: 0x11 secure: 0 valid: 1 | set: 0x1d way: 0x1
	Block: state: 6 (E) writable: 1 readable: 1 dirty: 0 prefetched: 0 | tag: 0x11 secure: 0 valid: 1 | set: 0x1e way: 0
	Block: state: 6 (E) writable: 1 readable: 1 dirty: 0 prefetched: 0 | tag: 0x10 secure: 0 valid: 1 | set: 0x1e way: 0x1
	Block: state: 6 (E) writable: 1 readable: 1 dirty: 0 prefetched: 0 | tag: 0x11 secure: 0 valid: 1 | set: 0x1f way: 0
	Block: state: 6 (E) writable: 1 readable: 1 dirty: 0 prefetched: 0 | tag: 0x10 secure: 0 valid: 1 | set: 0x1f way: 0x1
	Block: state: 6 (E) writable: 1 readable: 1 dirty: 0 prefetched: 0 | tag: 0x11 secure: 0 valid: 1 | set: 0x20 way: 0
	Block: state: 6 (E) writable: 1 readable: 1 dirty: 0 prefetched: 0 | tag: 0x10 secure: 0 valid: 1 | set: 0x20 way: 0x1
	Block: state: 6 (E) writable: 1 readable: 1 dirty: 0 prefetched: 0 | tag: 0x10 secure: 0 valid: 1 | set: 0x21 way: 0
	Block: state: 6 (E) writable: 1 readable: 1 dirty: 0 prefetched: 0 | tag: 0x11 secure: 0 valid: 1 | set: 0x21 way: 0x1
	Block: state: 6 (E) writable: 1 readable: 1 dirty: 0 prefetched: 0 | tag: 0x10 secure: 0 valid: 1 | set: 0x22 way: 0
	Block: state: 6 (E) writable: 1 readable: 1 dirty: 0 prefetched: 0 | tag: 0x11 secure: 0 valid: 1 | set: 0x22 way: 0x1
	Block: state: 6 (E) writable: 1 readable: 1 dirty: 0 prefetched: 0 | tag: 0x10 secure: 0 valid: 1 | set: 0x23 way: 0
	Block: state: 6 (E) writable: 1 readable: 1 dirty: 0 prefetched: 0 | tag: 0x11 secure: 0 valid: 1 | set: 0x23 way: 0x1
	Block: state: 6 (E) writable: 1 readable: 1 dirty: 0 prefetched: 0 | tag: 0x10 secure: 0 valid: 1 | set: 0x24 way: 0
	Block: state: 6 (E) writable: 1 readable: 1 dirty: 0 prefetched: 0 | tag: 0x11 secure: 0 valid: 1 | set: 0x24 way: 0x1
	Block: state: 6 (E) writable: 1 readable: 1 dirty: 0 prefetched: 0 | tag: 0x11 secure: 0 valid: 1 | set: 0x25 way: 0
	Block: state: 6 (E) writable: 1 readable: 1 dirty: 0 prefetched: 0 | tag: 0x10 secure: 0 valid: 1 | set: 0x25 way: 0x1
	Block: state: 6 (E) writable: 1 readable: 1 dirty: 0 prefetched: 0 | tag: 0x10 secure: 0 valid: 1 | set: 0x26 way: 0
	Block: state: 6 (E) writable: 1 readable: 1 dirty: 0 prefetched: 0 | tag: 0x11 secure: 0 valid: 1 | set: 0x26 way: 0x1
	Block: state: 6 (E) writable: 1 readable: 1 dirty: 0 prefetched: 0 | tag: 0x10 secure: 0 valid: 1 | set: 0x27 way: 0
	Block: state: 6 (E) writable: 1 readable: 1 dirty: 0 prefetched: 0 | tag: 0x11 secure: 0 valid: 1 | set: 0x27 way: 0x1
	Block: state: 6 (E) writable: 1 readable: 1 dirty: 0 prefetched: 0 | tag: 0x11 secure: 0 valid: 1 | set: 0x28 way: 0
	Block: state: 6 (E) writable: 1 readable: 1 dirty: 0 prefetched: 0 | tag: 0x10 secure: 0 valid: 1 | set: 0x28 way: 0x1
	Block: state: 6 (E) writable: 1 readable: 1 dirty: 0 prefetched: 0 | tag: 0x10 secure: 0 valid: 1 | set: 0x29 way: 0
	Block: state: 6 (E) writable: 1 readable: 1 dirty: 0 prefetched: 0 | tag: 0x11 secure: 0 valid: 1 | set: 0x29 way: 0x1
	Block: state: 6 (E) writable: 1 readable: 1 dirty: 0 prefetched: 0 | tag: 0x10 secure: 0 valid: 1 | set: 0x2a way: 0
	Block: state: 6 (E) writable: 1 readable: 1 dirty: 0 prefetched: 0 | tag: 0x11 secure: 0 valid: 1 | set: 0x2a way: 0x1
	Block: state: 6 (E) writable: 1 readable: 1 dirty: 0 prefetched: 0 | tag: 0x10 secure: 0 valid: 1 | set: 0x2b way: 0
	Block: state: 6 (E) writable: 1 readable: 1 dirty: 0 prefetched: 0 | tag: 0x11 secure: 0 valid: 1 | set: 0x2b way: 0x1
	Block: state: 6 (E) writable: 1 readable: 1 dirty: 0 prefetched: 0 | tag: 0x10 secure: 0 valid: 1 | set: 0x2c way: 0
	Block: state: 6 (E) writable: 1 readable: 1 dirty: 0 prefetched: 0 | tag: 0x11 secure: 0 valid: 1 | set: 0x2c way: 0x1
	Block: state: 6 (E) writable: 1 readable: 1 dirty: 0 prefetched: 0 | tag: 0x11 secure: 0 valid: 1 | set: 0x2d way: 0
	Block: state: 6 (E) writable: 1 readable: 1 dirty: 0 prefetched: 0 | tag: 0x10 secure: 0 valid: 1 | set: 0x2d way: 0x1
	Block: state: 6 (E) writable: 1 readable: 1 dirty: 0 prefetched: 0 | tag: 0x10 secure: 0 valid: 1 | set: 0x2e way: 0
	Block: state: 6 (E) writable: 1 readable: 1 dirty: 0 prefetched: 0 | tag: 0x11 secure: 0 valid: 1 | set: 0x2e way: 0x1
	Block: state: 6 (E) writable: 1 readable: 1 dirty: 0 prefetched: 0 | tag: 0x10 secure: 0 valid: 1 | set: 0x2f way: 0
	Block: state: 6 (E) writable: 1 readable: 1 dirty: 0 prefetched: 0 | tag: 0x11 secure: 0 valid: 1 | set: 0x2f way: 0x1
	Block: state: 6 (E) writable: 1 readable: 1 dirty: 0 prefetched: 0 | tag: 0x10 secure: 0 valid: 1 | set: 0x30 way: 0
	Block: state: 6 (E) writable: 1 readable: 1 dirty: 0 prefetched: 0 | tag: 0x11 secure: 0 valid: 1 | set: 0x30 way: 0x1
	Block: state: 6 (E) writable: 1 readable: 1 dirty: 0 prefetched: 0 | tag: 0x11 secure: 0 valid: 1 | set: 0x31 way: 0
	Block: state: 6 (E) writable: 1 readable: 1 dirty: 0 prefetched: 0 | tag: 0x10 secure: 0 valid: 1 | set: 0x31 way: 0x1
	Block: state: 6 (E) writable: 1 readable: 1 dirty: 0 prefetched: 0 | tag: 0x11 secure: 0 valid: 1 | set: 0x32 way: 0
	Block: state: 6 (E) writable: 1 readable: 1 dirty: 0 prefetched: 0 | tag: 0x10 secure: 0 valid: 1 | set: 0x32 way: 0x1
	Block: state: 6 (E) writable: 1 readable: 1 dirty: 0 prefetched: 0 | tag: 0x10 secure: 0 valid: 1 | set: 0x33 way: 0
	Block: state: 6 (E) writable: 1 readable: 1 dirty: 0 prefetched: 0 | tag: 0x11 secure: 0 valid: 1 | set: 0x33 way: 0x1
	Block: state: 6 (E) writable: 1 readable: 1 dirty: 0 prefetched: 0 | tag: 0x10 secure: 0 valid: 1 | set: 0x34 way: 0
	Block: state: 6 (E) writable: 1 readable: 1 dirty: 0 prefetched: 0 | tag: 0x11 secure: 0 valid: 1 | set: 0x34 way: 0x1
	Block: state: 6 (E) writable: 1 readable: 1 dirty: 0 prefetched: 0 | tag: 0x10 secure: 0 valid: 1 | set: 0x35 way: 0
	Block: state: 6 (E) writable: 1 readable: 1 dirty: 0 prefetched: 0 | tag: 0x11 secure: 0 valid: 1 | set: 0x35 way: 0x1
	Block: state: 6 (E) writable: 1 readable: 1 dirty: 0 prefetched: 0 | tag: 0x10 secure: 0 valid: 1 | set: 0x36 way: 0
	Block: state: 6 (E) writable: 1 readable: 1 dirty: 0 prefetched: 0 | tag: 0x11 secure: 0 valid: 1 | set: 0x36 way: 0x1
	Block: state: 6 (E) writable: 1 readable: 1 dirty: 0 prefetched: 0 | tag: 0x10 secure: 0 valid: 1 | set: 0x37 way: 0
	Block: state: 6 (E) writable: 1 readable: 1 dirty: 0 prefetched: 0 | tag: 0x11 secure: 0 valid: 1 | set: 0x37 way: 0x1
	Block: state: 6 (E) writable: 1 readable: 1 dirty: 0 prefetched: 0 | tag: 0x11 secure: 0 valid: 1 | set: 0x38 way: 0
	Block: state: 6 (E) writable: 1 readable: 1 dirty: 0 prefetched: 0 | tag: 0x10 secure: 0 valid: 1 | set: 0x38 way: 0x1
	Block: state: 6 (E) writable: 1 readable: 1 dirty: 0 prefetched: 0 | tag: 0x11 secure: 0 valid: 1 | set: 0x39 way: 0
	Block: state: 6 (E) writable: 1 readable: 1 dirty: 0 prefetched: 0 | tag: 0x10 secure: 0 valid: 1 | set: 0x39 way: 0x1
	Block: state: 6 (E) writable: 1 readable: 1 dirty: 0 prefetched: 0 | tag: 0x10 secure: 0 valid: 1 | set: 0x3a way: 0
	Block: state: 6 (E) writable: 1 readable: 1 dirty: 0 prefetched: 0 | tag: 0x11 secure: 0 valid: 1 | set: 0x3a way: 0x1
	Block: state: 6 (E) writable: 1 readable: 1 dirty: 0 prefetched: 0 | tag: 0x10 secure: 0 valid: 1 | set: 0x3b way: 0
	Block: state: 6 (E) writable: 1 readable: 1 dirty: 0 prefetched: 0 | tag: 0x11 secure: 0 valid: 1 | set: 0x3b way: 0x1
	Block: state: 6 (E) writable: 1 readable: 1 dirty: 0 prefetched: 0 | tag: 0x11 secure: 0 valid: 1 | set: 0x3c way: 0
	Block: state: 6 (E) writable: 1 readable: 1 dirty: 0 prefetched: 0 | tag: 0x10 secure: 0 valid: 1 | set: 0x3c way: 0x1
	Block: state: 6 (E) writable: 1 readable: 1 dirty: 0 prefetched: 0 | tag: 0x10 secure: 0 valid: 1 | set: 0x3d way: 0
	Block: state: 6 (E) writable: 1 readable: 1 dirty: 0 prefetched: 0 | tag: 0x11 secure: 0 valid: 1 | set: 0x3d way: 0x1
	Block: state: 6 (E) writable: 1 readable: 1 dirty: 0 prefetched: 0 | tag: 0x11 secure: 0 valid: 1 | set: 0x3e way: 0
	Block: state: 6 (E) writable: 1 readable: 1 dirty: 0 prefetched: 0 | tag: 0x10 secure: 0 valid: 1 | set: 0x3e way: 0x1
	Block: state: 6 (E) writable: 1 readable: 1 dirty: 0 prefetched: 0 | tag: 0x11 secure: 0 valid: 1 | set: 0x3f way: 0
	Block: state: 6 (E) writable: 1 readable: 1 dirty: 0 prefetched: 0 | tag: 0x10 secure: 0 valid: 1 | set: 0x3f way: 0x1
	Block: state: 6 (E) writable: 1 readable: 1 dirty: 0 prefetched: 0 | tag: 0xf secure: 0 valid: 1 | set: 0x40 way: 0
	Block: state: e (M) writable: 1 readable: 1 dirty: 1 prefetched: 0 | tag: 0xd secure: 0 valid: 1 | set: 0x40 way: 0x1
	Block: state: e (M) writable: 1 readable: 1 dirty: 1 prefetched: 0 | tag: 0xd secure: 0 valid: 1 | set: 0x41 way: 0
	Block: state: 6 (E) writable: 1 readable: 1 dirty: 0 prefetched: 0 | tag: 0xf secure: 0 valid: 1 | set: 0x41 way: 0x1
	Block: state: 6 (E) writable: 1 readable: 1 dirty: 0 prefetched: 0 | tag: 0xf secure: 0 valid: 1 | set: 0x42 way: 0
	Block: state: e (M) writable: 1 readable: 1 dirty: 1 prefetched: 0 | tag: 0xd secure: 0 valid: 1 | set: 0x42 way: 0x1
	Block: state: 6 (E) writable: 1 readable: 1 dirty: 0 prefetched: 0 | tag: 0xd secure: 0 valid: 1 | set: 0x43 way: 0
	Block: state: 6 (E) writable: 1 readable: 1 dirty: 0 prefetched: 0 | tag: 0xf secure: 0 valid: 1 | set: 0x43 way: 0x1
	Block: state: 6 (E) writable: 1 readable: 1 dirty: 0 prefetched: 0 | tag: 0xf secure: 0 valid: 1 | set: 0x44 way: 0
	Block: state: 6 (E) writable: 1 readable: 1 dirty: 0 prefetched: 0 | tag: 0x10 secure: 0 valid: 1 | set: 0x44 way: 0x1
	Block: state: e (M) writable: 1 readable: 1 dirty: 1 prefetched: 0 | tag: 0xd secure: 0 valid: 1 | set: 0x45 way: 0
	Block: state: 6 (E) writable: 1 readable: 1 dirty: 0 prefetched: 0 | tag: 0xf secure: 0 valid: 1 | set: 0x45 way: 0x1
	Block: state: 6 (E) writable: 1 readable: 1 dirty: 0 prefetched: 0 | tag: 0xf secure: 0 valid: 1 | set: 0x46 way: 0
	Block: state: e (M) writable: 1 readable: 1 dirty: 1 prefetched: 0 | tag: 0xd secure: 0 valid: 1 | set: 0x46 way: 0x1
	Block: state: 6 (E) writable: 1 readable: 1 dirty: 0 prefetched: 0 | tag: 0x10 secure: 0 valid: 1 | set: 0x47 way: 0
	Block: state: 6 (E) writable: 1 readable: 1 dirty: 0 prefetched: 0 | tag: 0xf secure: 0 valid: 1 | set: 0x47 way: 0x1
	Block: state: 6 (E) writable: 1 readable: 1 dirty: 0 prefetched: 0 | tag: 0x10 secure: 0 valid: 1 | set: 0x48 way: 0
	Block: state: 6 (E) writable: 1 readable: 1 dirty: 0 prefetched: 0 | tag: 0xf secure: 0 valid: 1 | set: 0x48 way: 0x1
	Block: state: e (M) writable: 1 readable: 1 dirty: 1 prefetched: 0 | tag: 0xd secure: 0 valid: 1 | set: 0x49 way: 0
	Block: state: 6 (E) writable: 1 readable: 1 dirty: 0 prefetched: 0 | tag: 0xf secure: 0 valid: 1 | set: 0x49 way: 0x1
	Block: state: 6 (E) writable: 1 readable: 1 dirty: 0 prefetched: 0 | tag: 0xd secure: 0 valid: 1 | set: 0x4a way: 0
	Block: state: 6 (E) writable: 1 readable: 1 dirty: 0 prefetched: 0 | tag: 0xf secure: 0 valid: 1 | set: 0x4a way: 0x1
	Block: state: e (M) writable: 1 readable: 1 dirty: 1 prefetched: 0 | tag: 0xd secure: 0 valid: 1 | set: 0x4b way: 0
	Block: state: 6 (E) writable: 1 readable: 1 dirty: 0 prefetched: 0 | tag: 0xf secure: 0 valid: 1 | set: 0x4b way: 0x1
	Block: state: 6 (E) writable: 1 readable: 1 dirty: 0 prefetched: 0 | tag: 0xf secure: 0 valid: 1 | set: 0x4c way: 0
	Block: state: 6 (E) writable: 1 readable: 1 dirty: 0 prefetched: 0 | tag: 0x10 secure: 0 valid: 1 | set: 0x4c way: 0x1
	Block: state: 6 (E) writable: 1 readable: 1 dirty: 0 prefetched: 0 | tag: 0x10 secure: 0 valid: 1 | set: 0x4d way: 0
	Block: state: 6 (E) writable: 1 readable: 1 dirty: 0 prefetched: 0 | tag: 0xf secure: 0 valid: 1 | set: 0x4d way: 0x1
	Block: state: 6 (E) writable: 1 readable: 1 dirty: 0 prefetched: 0 | tag: 0x10 secure: 0 valid: 1 | set: 0x4e way: 0
	Block: state: 6 (E) writable: 1 readable: 1 dirty: 0 prefetched: 0 | tag: 0xf secure: 0 valid: 1 | set: 0x4e way: 0x1
	Block: state: 6 (E) writable: 1 readable: 1 dirty: 0 prefetched: 0 | tag: 0x10 secure: 0 valid: 1 | set: 0x4f way: 0
	Block: state: 6 (E) writable: 1 readable: 1 dirty: 0 prefetched: 0 | tag: 0xf secure: 0 valid: 1 | set: 0x4f way: 0x1
	Block: state: 6 (E) writable: 1 readable: 1 dirty: 0 prefetched: 0 | tag: 0x10 secure: 0 valid: 1 | set: 0x50 way: 0
	Block: state: 6 (E) writable: 1 readable: 1 dirty: 0 prefetched: 0 | tag: 0xf secure: 0 valid: 1 | set: 0x50 way: 0x1
	Block: state: 6 (E) writable: 1 readable: 1 dirty: 0 prefetched: 0 | tag: 0xf secure: 0 valid: 1 | set: 0x51 way: 0
	Block: state: 6 (E) writable: 1 readable: 1 dirty: 0 prefetched: 0 | tag: 0x10 secure: 0 valid: 1 | set: 0x51 way: 0x1
	Block: state: 6 (E) writable: 1 readable: 1 dirty: 0 prefetched: 0 | tag: 0x10 secure: 0 valid: 1 | set: 0x52 way: 0
	Block: state: 6 (E) writable: 1 readable: 1 dirty: 0 prefetched: 0 | tag: 0xf secure: 0 valid: 1 | set: 0x52 way: 0x1
	Block: state: 6 (E) writable: 1 readable: 1 dirty: 0 prefetched: 0 | tag: 0xf secure: 0 valid: 1 | set: 0x53 way: 0
	Block: state: 6 (E) writable: 1 readable: 1 dirty: 0 prefetched: 0 | tag: 0x10 secure: 0 valid: 1 | set: 0x53 way: 0x1
	Block: state: 6 (E) writable: 1 readable: 1 dirty: 0 prefetched: 0 | tag: 0x10 secure: 0 valid: 1 | set: 0x54 way: 0
	Block: state: 6 (E) writable: 1 readable: 1 dirty: 0 prefetched: 0 | tag: 0xf secure: 0 valid: 1 | set: 0x54 way: 0x1
	Block: state: 6 (E) writable: 1 readable: 1 dirty: 0 prefetched: 0 | tag: 0x10 secure: 0 valid: 1 | set: 0x55 way: 0
	Block: state: 6 (E) writable: 1 readable: 1 dirty: 0 prefetched: 0 | tag: 0xf secure: 0 valid: 1 | set: 0x55 way: 0x1
	Block: state: 6 (E) writable: 1 readable: 1 dirty: 0 prefetched: 0 | tag: 0xf secure: 0 valid: 1 | set: 0x56 way: 0
	Block: state: 6 (E) writable: 1 readable: 1 dirty: 0 prefetched: 0 | tag: 0x10 secure: 0 valid: 1 | set: 0x56 way: 0x1
	Block: state: 6 (E) writable: 1 readable: 1 dirty: 0 prefetched: 0 | tag: 0x10 secure: 0 valid: 1 | set: 0x57 way: 0
	Block: state: 6 (E) writable: 1 readable: 1 dirty: 0 prefetched: 0 | tag: 0xf secure: 0 valid: 1 | set: 0x57 way: 0x1
	Block: state: e (M) writable: 1 readable: 1 dirty: 1 prefetched: 0 | tag: 0xa secure: 0 valid: 1 | set: 0x58 way: 0
	Block: state: 6 (E) writable: 1 readable: 1 dirty: 0 prefetched: 0 | tag: 0xf secure: 0 valid: 1 | set: 0x58 way: 0x1
	Block: state: 6 (E) writable: 1 readable: 1 dirty: 0 prefetched: 0 | tag: 0xf secure: 0 valid: 1 | set: 0x59 way: 0
	Block: state: e (M) writable: 1 readable: 1 dirty: 1 prefetched: 0 | tag: 0xa secure: 0 valid: 1 | set: 0x59 way: 0x1
	Block: state: 6 (E) writable: 1 readable: 1 dirty: 0 prefetched: 0 | tag: 0xf secure: 0 valid: 1 | set: 0x5a way: 0
	Block: state: 6 (E) writable: 1 readable: 1 dirty: 0 prefetched: 0 | tag: 0x10 secure: 0 valid: 1 | set: 0x5a way: 0x1
	Block: state: 6 (E) writable: 1 readable: 1 dirty: 0 prefetched: 0 | tag: 0xf secure: 0 valid: 1 | set: 0x5b way: 0
	Block: state: 6 (E) writable: 1 readable: 1 dirty: 0 prefetched: 0 | tag: 0x10 secure: 0 valid: 1 | set: 0x5b way: 0x1
	Block: state: 6 (E) writable: 1 readable: 1 dirty: 0 prefetched: 0 | tag: 0x10 secure: 0 valid: 1 | set: 0x5c way: 0
	Block: state: 6 (E) writable: 1 readable: 1 dirty: 0 prefetched: 0 | tag: 0xf secure: 0 valid: 1 | set: 0x5c way: 0x1
	Block: state: 6 (E) writable: 1 readable: 1 dirty: 0 prefetched: 0 | tag: 0x10 secure: 0 valid: 1 | set: 0x5d way: 0
	Block: state: 6 (E) writable: 1 readable: 1 dirty: 0 prefetched: 0 | tag: 0xf secure: 0 valid: 1 | set: 0x5d way: 0x1
	Block: state: 6 (E) writable: 1 readable: 1 dirty: 0 prefetched: 0 | tag: 0x10 secure: 0 valid: 1 | set: 0x5e way: 0
	Block: state: 6 (E) writable: 1 readable: 1 dirty: 0 prefetched: 0 | tag: 0xf secure: 0 valid: 1 | set: 0x5e way: 0x1
	Block: state: 6 (E) writable: 1 readable: 1 dirty: 0 prefetched: 0 | tag: 0xf secure: 0 valid: 1 | set: 0x5f way: 0
	Block: state: 6 (E) writable: 1 readable: 1 dirty: 0 prefetched: 0 | tag: 0x10 secure: 0 valid: 1 | set: 0x5f way: 0x1
	Block: state: 6 (E) writable: 1 readable: 1 dirty: 0 prefetched: 0 | tag: 0x10 secure: 0 valid: 1 | set: 0x60 way: 0
	Block: state: 6 (E) writable: 1 readable: 1 dirty: 0 prefetched: 0 | tag: 0xf secure: 0 valid: 1 | set: 0x60 way: 0x1
	Block: state: 6 (E) writable: 1 readable: 1 dirty: 0 prefetched: 0 | tag: 0xf secure: 0 valid: 1 | set: 0x61 way: 0
	Block: state: 6 (E) writable: 1 readable: 1 dirty: 0 prefetched: 0 | tag: 0x10 secure: 0 valid: 1 | set: 0x61 way: 0x1
	Block: state: 6 (E) writable: 1 readable: 1 dirty: 0 prefetched: 0 | tag: 0xa secure: 0 valid: 1 | set: 0x62 way: 0
	Block: state: 6 (E) writable: 1 readable: 1 dirty: 0 prefetched: 0 | tag: 0xf secure: 0 valid: 1 | set: 0x62 way: 0x1
	Block: state: 6 (E) writable: 1 readable: 1 dirty: 0 prefetched: 0 | tag: 0xf secure: 0 valid: 1 | set: 0x63 way: 0
	Block: state: 6 (E) writable: 1 readable: 1 dirty: 0 prefetched: 0 | tag: 0xa secure: 0 valid: 1 | set: 0x63 way: 0x1
	Block: state: 6 (E) writable: 1 readable: 1 dirty: 0 prefetched: 0 | tag: 0xf secure: 0 valid: 1 | set: 0x64 way: 0
	Block: state: 6 (E) writable: 1 readable: 1 dirty: 0 prefetched: 0 | tag: 0xa secure: 0 valid: 1 | set: 0x64 way: 0x1
	Block: state: 6 (E) writable: 1 readable: 1 dirty: 0 prefetched: 0 | tag: 0xf secure: 0 valid: 1 | set: 0x65 way: 0
	Block: state: 6 (E) writable: 1 readable: 1 dirty: 0 prefetched: 0 | tag: 0x10 secure: 0 valid: 1 | set: 0x65 way: 0x1
	Block: state: 6 (E) writable: 1 readable: 1 dirty: 0 prefetched: 0 | tag: 0xf secure: 0 valid: 1 | set: 0x66 way: 0
	Block: state: 6 (E) writable: 1 readable: 1 dirty: 0 prefetched: 0 | tag: 0x10 secure: 0 valid: 1 | set: 0x66 way: 0x1
	Block: state: 6 (E) writable: 1 readable: 1 dirty: 0 prefetched: 0 | tag: 0xa secure: 0 valid: 1 | set: 0x67 way: 0
	Block: state: 6 (E) writable: 1 readable: 1 dirty: 0 prefetched: 0 | tag: 0xf secure: 0 valid: 1 | set: 0x67 way: 0x1
	Block: state: 6 (E) writable: 1 readable: 1 dirty: 0 prefetched: 0 | tag: 0xf secure: 0 valid: 1 | set: 0x68 way: 0
	Block: state: 6 (E) writable: 1 readable: 1 dirty: 0 prefetched: 0 | tag: 0xa secure: 0 valid: 1 | set: 0x68 way: 0x1
	Block: state: 6 (E) writable: 1 readable: 1 dirty: 0 prefetched: 0 | tag: 0xa secure: 0 valid: 1 | set: 0x69 way: 0
	Block: state: 6 (E) writable: 1 readable: 1 dirty: 0 prefetched: 0 | tag: 0xf secure: 0 valid: 1 | set: 0x69 way: 0x1
	Block: state: 6 (E) writable: 1 readable: 1 dirty: 0 prefetched: 0 | tag: 0xf secure: 0 valid: 1 | set: 0x6a way: 0
	Block: state: 6 (E) writable: 1 readable: 1 dirty: 0 prefetched: 0 | tag: 0xa secure: 0 valid: 1 | set: 0x6a way: 0x1
	Block: state: 6 (E) writable: 1 readable: 1 dirty: 0 prefetched: 0 | tag: 0xf secure: 0 valid: 1 | set: 0x6b way: 0
	Block: state: 6 (E) writable: 1 readable: 1 dirty: 0 prefetched: 0 | tag: 0x10 secure: 0 valid: 1 | set: 0x6b way: 0x1
	Block: state: 6 (E) writable: 1 readable: 1 dirty: 0 prefetched: 0 | tag: 0xf secure: 0 valid: 1 | set: 0x6c way: 0
	Block: state: 6 (E) writable: 1 readable: 1 dirty: 0 prefetched: 0 | tag: 0x10 secure: 0 valid: 1 | set: 0x6c way: 0x1
	Block: state: 6 (E) writable: 1 readable: 1 dirty: 0 prefetched: 0 | tag: 0xa secure: 0 valid: 1 | set: 0x6d way: 0
	Block: state: e (M) writable: 1 readable: 1 dirty: 1 prefetched: 0 | tag: 0xd secure: 0 valid: 1 | set: 0x6d way: 0x1
	Block: state: e (M) writable: 1 readable: 1 dirty: 1 prefetched: 0 | tag: 0xd secure: 0 valid: 1 | set: 0x6e way: 0
	Block: state: 6 (E) writable: 1 readable: 1 dirty: 0 prefetched: 0 | tag: 0xa secure: 0 valid: 1 | set: 0x6e way: 0x1
	Block: state: e (M) writable: 1 readable: 1 dirty: 1 prefetched: 0 | tag: 0xd secure: 0 valid: 1 | set: 0x6f way: 0
	Block: state: 6 (E) writable: 1 readable: 1 dirty: 0 prefetched: 0 | tag: 0xa secure: 0 valid: 1 | set: 0x6f way: 0x1
	Block: state: 6 (E) writable: 1 readable: 1 dirty: 0 prefetched: 0 | tag: 0xf secure: 0 valid: 1 | set: 0x70 way: 0
	Block: state: e (M) writable: 1 readable: 1 dirty: 1 prefetched: 0 | tag: 0xd secure: 0 valid: 1 | set: 0x70 way: 0x1
	Block: state: 6 (E) writable: 1 readable: 1 dirty: 0 prefetched: 0 | tag: 0xf secure: 0 valid: 1 | set: 0x71 way: 0
	Block: state: e (M) writable: 1 readable: 1 dirty: 1 prefetched: 0 | tag: 0xd secure: 0 valid: 1 | set: 0x71 way: 0x1
	Block: state: 6 (E) writable: 1 readable: 1 dirty: 0 prefetched: 0 | tag: 0xa secure: 0 valid: 1 | set: 0x72 way: 0
	Block: state: e (M) writable: 1 readable: 1 dirty: 1 prefetched: 0 | tag: 0xd secure: 0 valid: 1 | set: 0x72 way: 0x1
	Block: state: 6 (E) writable: 1 readable: 1 dirty: 0 prefetched: 0 | tag: 0xa secure: 0 valid: 1 | set: 0x73 way: 0
	Block: state: e (M) writable: 1 readable: 1 dirty: 1 prefetched: 0 | tag: 0xd secure: 0 valid: 1 | set: 0x73 way: 0x1
	Block: state: 6 (E) writable: 1 readable: 1 dirty: 0 prefetched: 0 | tag: 0xf secure: 0 valid: 1 | set: 0x74 way: 0
	Block: state: e (M) writable: 1 readable: 1 dirty: 1 prefetched: 0 | tag: 0xd secure: 0 valid: 1 | set: 0x74 way: 0x1
	Block: state: 6 (E) writable: 1 readable: 1 dirty: 0 prefetched: 0 | tag: 0xa secure: 0 valid: 1 | set: 0x75 way: 0
	Block: state: e (M) writable: 1 readable: 1 dirty: 1 prefetched: 0 | tag: 0xd secure: 0 valid: 1 | set: 0x75 way: 0x1
	Block: state: 6 (E) writable: 1 readable: 1 dirty: 0 prefetched: 0 | tag: 0xa secure: 0 valid: 1 | set: 0x76 way: 0
	Block: state: e (M) writable: 1 readable: 1 dirty: 1 prefetched: 0 | tag: 0xd secure: 0 valid: 1 | set: 0x76 way: 0x1
	Block: state: 6 (E) writable: 1 readable: 1 dirty: 0 prefetched: 0 | tag: 0xa secure: 0 valid: 1 | set: 0x77 way: 0
	Block: state: e (M) writable: 1 readable: 1 dirty: 1 prefetched: 0 | tag: 0xd secure: 0 valid: 1 | set: 0x77 way: 0x1
	Block: state: 6 (E) writable: 1 readable: 1 dirty: 0 prefetched: 0 | tag: 0xa secure: 0 valid: 1 | set: 0x78 way: 0
	Block: state: e (M) writable: 1 readable: 1 dirty: 1 prefetched: 0 | tag: 0xd secure: 0 valid: 1 | set: 0x78 way: 0x1
	Block: state: 6 (E) writable: 1 readable: 1 dirty: 0 prefetched: 0 | tag: 0xa secure: 0 valid: 1 | set: 0x79 way: 0
	Block: state: e (M) writable: 1 readable: 1 dirty: 1 prefetched: 0 | tag: 0xd secure: 0 valid: 1 | set: 0x79 way: 0x1
	Block: state: e (M) writable: 1 readable: 1 dirty: 1 prefetched: 0 | tag: 0xa secure: 0 valid: 1 | set: 0x7a way: 0
	Block: state: e (M) writable: 1 readable: 1 dirty: 1 prefetched: 0 | tag: 0xd secure: 0 valid: 1 | set: 0x7a way: 0x1
	Block: state: e (M) writable: 1 readable: 1 dirty: 1 prefetched: 0 | tag: 0xd secure: 0 valid: 1 | set: 0x7b way: 0
	Block: state: 6 (E) writable: 1 readable: 1 dirty: 0 prefetched: 0 | tag: 0xf secure: 0 valid: 1 | set: 0x7b way: 0x1
	Block: state: e (M) writable: 1 readable: 1 dirty: 1 prefetched: 0 | tag: 0xd secure: 0 valid: 1 | set: 0x7c way: 0
	Block: state: 6 (E) writable: 1 readable: 1 dirty: 0 prefetched: 0 | tag: 0xf secure: 0 valid: 1 | set: 0x7c way: 0x1
	Block: state: 6 (E) writable: 1 readable: 1 dirty: 0 prefetched: 0 | tag: 0xf secure: 0 valid: 1 | set: 0x7d way: 0
	Block: state: e (M) writable: 1 readable: 1 dirty: 1 prefetched: 0 | tag: 0xd secure: 0 valid: 1 | set: 0x7d way: 0x1
	Block: state: 6 (E) writable: 1 readable: 1 dirty: 0 prefetched: 0 | tag: 0xf secure: 0 valid: 1 | set: 0x7e way: 0
	Block: state: e (M) writable: 1 readable: 1 dirty: 1 prefetched: 0 | tag: 0xd secure: 0 valid: 1 | set: 0x7e way: 0x1
	Block: state: e (M) writable: 1 readable: 1 dirty: 1 prefetched: 0 | tag: 0xd secure: 0 valid: 1 | set: 0x7f way: 0
	Block: state: 6 (E) writable: 1 readable: 1 dirty: 0 prefetched: 0 | tag: 0xf secure: 0 valid: 1 | set: 0x7f way: 0x1
	Block: state: 6 (E) writable: 1 readable: 1 dirty: 0 prefetched: 0 | tag: 0 secure: 0 valid: 1 | set: 0x80 way: 0
	Block: state: e (M) writable: 1 readable: 1 dirty: 1 prefetched: 0 | tag: 0xc secure: 0 valid: 1 | set: 0x80 way: 0x1
	Block: state: 6 (E) writable: 1 readable: 1 dirty: 0 prefetched: 0 | tag: 0 secure: 0 valid: 1 | set: 0x81 way: 0
	Block: state: e (M) writable: 1 readable: 1 dirty: 1 prefetched: 0 | tag: 0xc secure: 0 valid: 1 | set: 0x81 way: 0x1
	Block: state: 6 (E) writable: 1 readable: 1 dirty: 0 prefetched: 0 | tag: 0xf secure: 0 valid: 1 | set: 0x82 way: 0
	Block: state: 6 (E) writable: 1 readable: 1 dirty: 0 prefetched: 0 | tag: 0 secure: 0 valid: 1 | set: 0x82 way: 0x1
	Block: state: 6 (E) writable: 1 readable: 1 dirty: 0 prefetched: 0 | tag: 0xf secure: 0 valid: 1 | set: 0x83 way: 0
	Block: state: e (M) writable: 1 readable: 1 dirty: 1 prefetched: 0 | tag: 0xc secure: 0 valid: 1 | set: 0x83 way: 0x1
	Block: state: 6 (E) writable: 1 readable: 1 dirty: 0 prefetched: 0 | tag: 0xf secure: 0 valid: 1 | set: 0x84 way: 0
	Block: state: 6 (E) writable: 1 readable: 1 dirty: 0 prefetched: 0 | tag: 0x10 secure: 0 valid: 1 | set: 0x84 way: 0x1
	Block: state: 6 (E) writable: 1 readable: 1 dirty: 0 prefetched: 0 | tag: 0x10 secure: 0 valid: 1 | set: 0x85 way: 0
	Block: state: 6 (E) writable: 1 readable: 1 dirty: 0 prefetched: 0 | tag: 0xf secure: 0 valid: 1 | set: 0x85 way: 0x1
	Block: state: 6 (E) writable: 1 readable: 1 dirty: 0 prefetched: 0 | tag: 0xf secure: 0 valid: 1 | set: 0x86 way: 0
	Block: state: 6 (E) writable: 1 readable: 1 dirty: 0 prefetched: 0 | tag: 0x10 secure: 0 valid: 1 | set: 0x86 way: 0x1
	Block: state: e (M) writable: 1 readable: 1 dirty: 1 prefetched: 0 | tag: 0xc secure: 0 valid: 1 | set: 0x87 way: 0
	Block: state: 6 (E) writable: 1 readable: 1 dirty: 0 prefetched: 0 | tag: 0xf secure: 0 valid: 1 | set: 0x87 way: 0x1
	Block: state: 6 (E) writable: 1 readable: 1 dirty: 0 prefetched: 0 | tag: 0xf secure: 0 valid: 1 | set: 0x88 way: 0
	Block: state: 6 (E) writable: 1 readable: 1 dirty: 0 prefetched: 0 | tag: 0x10 secure: 0 valid: 1 | set: 0x88 way: 0x1
	Block: state: 6 (E) writable: 1 readable: 1 dirty: 0 prefetched: 0 | tag: 0x10 secure: 0 valid: 1 | set: 0x89 way: 0
	Block: state: 6 (E) writable: 1 readable: 1 dirty: 0 prefetched: 0 | tag: 0xf secure: 0 valid: 1 | set: 0x89 way: 0x1
	Block: state: 6 (E) writable: 1 readable: 1 dirty: 0 prefetched: 0 | tag: 0x10 secure: 0 valid: 1 | set: 0x8a way: 0
	Block: state: 6 (E) writable: 1 readable: 1 dirty: 0 prefetched: 0 | tag: 0xf secure: 0 valid: 1 | set: 0x8a way: 0x1
	Block: state: e (M) writable: 1 readable: 1 dirty: 1 prefetched: 0 | tag: 0xc secure: 0 valid: 1 | set: 0x8b way: 0
	Block: state: 6 (E) writable: 1 readable: 1 dirty: 0 prefetched: 0 | tag: 0xf secure: 0 valid: 1 | set: 0x8b way: 0x1
	Block: state: e (M) writable: 1 readable: 1 dirty: 1 prefetched: 0 | tag: 0xc secure: 0 valid: 1 | set: 0x8c way: 0
	Block: state: 6 (E) writable: 1 readable: 1 dirty: 0 prefetched: 0 | tag: 0xf secure: 0 valid: 1 | set: 0x8c way: 0x1
	Block: state: 6 (E) writable: 1 readable: 1 dirty: 0 prefetched: 0 | tag: 0xf secure: 0 valid: 1 | set: 0x8d way: 0
	Block: state: e (M) writable: 1 readable: 1 dirty: 1 prefetched: 0 | tag: 0xc secure: 0 valid: 1 | set: 0x8d way: 0x1
	Block: state: 6 (E) writable: 1 readable: 1 dirty: 0 prefetched: 0 | tag: 0xf secure: 0 valid: 1 | set: 0x8e way: 0
	Block: state: e (M) writable: 1 readable: 1 dirty: 1 prefetched: 0 | tag: 0xc secure: 0 valid: 1 | set: 0x8e way: 0x1
	Block: state: 6 (E) writable: 1 readable: 1 dirty: 0 prefetched: 0 | tag: 0xf secure: 0 valid: 1 | set: 0x8f way: 0
	Block: state: 6 (E) writable: 1 readable: 1 dirty: 0 prefetched: 0 | tag: 0x10 secure: 0 valid: 1 | set: 0x8f way: 0x1
	Block: state: 6 (E) writable: 1 readable: 1 dirty: 0 prefetched: 0 | tag: 0xf secure: 0 valid: 1 | set: 0x90 way: 0
	Block: state: 6 (E) writable: 1 readable: 1 dirty: 0 prefetched: 0 | tag: 0x10 secure: 0 valid: 1 | set: 0x90 way: 0x1
	Block: state: 6 (E) writable: 1 readable: 1 dirty: 0 prefetched: 0 | tag: 0xf secure: 0 valid: 1 | set: 0x91 way: 0
	Block: state: 6 (E) writable: 1 readable: 1 dirty: 0 prefetched: 0 | tag: 0x10 secure: 0 valid: 1 | set: 0x91 way: 0x1
	Block: state: 6 (E) writable: 1 readable: 1 dirty: 0 prefetched: 0 | tag: 0xf secure: 0 valid: 1 | set: 0x92 way: 0
	Block: state: 6 (E) writable: 1 readable: 1 dirty: 0 prefetched: 0 | tag: 0x10 secure: 0 valid: 1 | set: 0x92 way: 0x1
	Block: state: 6 (E) writable: 1 readable: 1 dirty: 0 prefetched: 0 | tag: 0x10 secure: 0 valid: 1 | set: 0x93 way: 0
	Block: state: 6 (E) writable: 1 readable: 1 dirty: 0 prefetched: 0 | tag: 0xf secure: 0 valid: 1 | set: 0x93 way: 0x1
	Block: state: e (M) writable: 1 readable: 1 dirty: 1 prefetched: 0 | tag: 0xc secure: 0 valid: 1 | set: 0x94 way: 0
	Block: state: 6 (E) writable: 1 readable: 1 dirty: 0 prefetched: 0 | tag: 0xf secure: 0 valid: 1 | set: 0x94 way: 0x1
	Block: state: 6 (E) writable: 1 readable: 1 dirty: 0 prefetched: 0 | tag: 0x10 secure: 0 valid: 1 | set: 0x95 way: 0
	Block: state: 6 (E) writable: 1 readable: 1 dirty: 0 prefetched: 0 | tag: 0xf secure: 0 valid: 1 | set: 0x95 way: 0x1
	Block: state: 6 (E) writable: 1 readable: 1 dirty: 0 prefetched: 0 | tag: 0x10 secure: 0 valid: 1 | set: 0x96 way: 0
	Block: state: 6 (E) writable: 1 readable: 1 dirty: 0 prefetched: 0 | tag: 0xf secure: 0 valid: 1 | set: 0x96 way: 0x1
	Block: state: 6 (E) writable: 1 readable: 1 dirty: 0 prefetched: 0 | tag: 0xf secure: 0 valid: 1 | set: 0x97 way: 0
	Block: state: 6 (E) writable: 1 readable: 1 dirty: 0 prefetched: 0 | tag: 0x10 secure: 0 valid: 1 | set: 0x97 way: 0x1
	Block: state: 6 (E) writable: 1 readable: 1 dirty: 0 prefetched: 0 | tag: 0x10 secure: 0 valid: 1 | set: 0x98 way: 0
	Block: state: 6 (E) writable: 1 readable: 1 dirty: 0 prefetched: 0 | tag: 0xf secure: 0 valid: 1 | set: 0x98 way: 0x1
	Block: state: 6 (E) writable: 1 readable: 1 dirty: 0 prefetched: 0 | tag: 0x10 secure: 0 valid: 1 | set: 0x99 way: 0
	Block: state: 6 (E) writable: 1 readable: 1 dirty: 0 prefetched: 0 | tag: 0xf secure: 0 valid: 1 | set: 0x99 way: 0x1
	Block: state: 6 (E) writable: 1 readable: 1 dirty: 0 prefetched: 0 | tag: 0x10 secure: 0 valid: 1 | set: 0x9a way: 0
	Block: state: 6 (E) writable: 1 readable: 1 dirty: 0 prefetched: 0 | tag: 0xf secure: 0 valid: 1 | set: 0x9a way: 0x1
	Block: state: 6 (E) writable: 1 readable: 1 dirty: 0 prefetched: 0 | tag: 0xf secure: 0 valid: 1 | set: 0x9b way: 0
	Block: state: 6 (E) writable: 1 readable: 1 dirty: 0 prefetched: 0 | tag: 0x10 secure: 0 valid: 1 | set: 0x9b way: 0x1
	Block: state: 6 (E) writable: 1 readable: 1 dirty: 0 prefetched: 0 | tag: 0xf secure: 0 valid: 1 | set: 0x9c way: 0
	Block: state: 6 (E) writable: 1 readable: 1 dirty: 0 prefetched: 0 | tag: 0x10 secure: 0 valid: 1 | set: 0x9c way: 0x1
	Block: state: 6 (E) writable: 1 readable: 1 dirty: 0 prefetched: 0 | tag: 0x10 secure: 0 valid: 1 | set: 0x9d way: 0
	Block: state: 6 (E) writable: 1 readable: 1 dirty: 0 prefetched: 0 | tag: 0xf secure: 0 valid: 1 | set: 0x9d way: 0x1
	Block: state: 6 (E) writable: 1 readable: 1 dirty: 0 prefetched: 0 | tag: 0xf secure: 0 valid: 1 | set: 0x9e way: 0
	Block: state: 6 (E) writable: 1 readable: 1 dirty: 0 prefetched: 0 | tag: 0x10 secure: 0 valid: 1 | set: 0x9e way: 0x1
	Block: state: 6 (E) writable: 1 readable: 1 dirty: 0 prefetched: 0 | tag: 0x10 secure: 0 valid: 1 | set: 0x9f way: 0
	Block: state: 6 (E) writable: 1 readable: 1 dirty: 0 prefetched: 0 | tag: 0xf secure: 0 valid: 1 | set: 0x9f way: 0x1
	Block: state: 6 (E) writable: 1 readable: 1 dirty: 0 prefetched: 0 | tag: 0x10 secure: 0 valid: 1 | set: 0xa0 way: 0
	Block: state: 6 (E) writable: 1 readable: 1 dirty: 0 prefetched: 0 | tag: 0xf secure: 0 valid: 1 | set: 0xa0 way: 0x1
	Block: state: 6 (E) writable: 1 readable: 1 dirty: 0 prefetched: 0 | tag: 0x10 secure: 0 valid: 1 | set: 0xa1 way: 0
	Block: state: 6 (E) writable: 1 readable: 1 dirty: 0 prefetched: 0 | tag: 0xf secure: 0 valid: 1 | set: 0xa1 way: 0x1
	Block: state: 6 (E) writable: 1 readable: 1 dirty: 0 prefetched: 0 | tag: 0xf secure: 0 valid: 1 | set: 0xa2 way: 0
	Block: state: e (M) writable: 1 readable: 1 dirty: 1 prefetched: 0 | tag: 0xc secure: 0 valid: 1 | set: 0xa2 way: 0x1
	Block: state: 6 (E) writable: 1 readable: 1 dirty: 0 prefetched: 0 | tag: 0xf secure: 0 valid: 1 | set: 0xa3 way: 0
	Block: state: 6 (E) writable: 1 readable: 1 dirty: 0 prefetched: 0 | tag: 0x10 secure: 0 valid: 1 | set: 0xa3 way: 0x1
	Block: state: 6 (E) writable: 1 readable: 1 dirty: 0 prefetched: 0 | tag: 0x10 secure: 0 valid: 1 | set: 0xa4 way: 0
	Block: state: 6 (E) writable: 1 readable: 1 dirty: 0 prefetched: 0 | tag: 0xf secure: 0 valid: 1 | set: 0xa4 way: 0x1
	Block: state: e (M) writable: 1 readable: 1 dirty: 1 prefetched: 0 | tag: 0xa secure: 0 valid: 1 | set: 0xa5 way: 0
	Block: state: e (M) writable: 1 readable: 1 dirty: 1 prefetched: 0 | tag: 0xc secure: 0 valid: 1 | set: 0xa5 way: 0x1
	Block: state: 6 (E) writable: 1 readable: 1 dirty: 0 prefetched: 0 | tag: 0xf secure: 0 valid: 1 | set: 0xa6 way: 0
	Block: state: 6 (E) writable: 1 readable: 1 dirty: 0 prefetched: 0 | tag: 0x10 secure: 0 valid: 1 | set: 0xa6 way: 0x1
	Block: state: 6 (E) writable: 1 readable: 1 dirty: 0 prefetched: 0 | tag: 0xf secure: 0 valid: 1 | set: 0xa7 way: 0
	Block: state: e (M) writable: 1 readable: 1 dirty: 1 prefetched: 0 | tag: 0xa secure: 0 valid: 1 | set: 0xa7 way: 0x1
	Block: state: 6 (E) writable: 1 readable: 1 dirty: 0 prefetched: 0 | tag: 0xf secure: 0 valid: 1 | set: 0xa8 way: 0
	Block: state: e (M) writable: 1 readable: 1 dirty: 1 prefetched: 0 | tag: 0xa secure: 0 valid: 1 | set: 0xa8 way: 0x1
	Block: state: 6 (E) writable: 1 readable: 1 dirty: 0 prefetched: 0 | tag: 0xf secure: 0 valid: 1 | set: 0xa9 way: 0
	Block: state: e (M) writable: 1 readable: 1 dirty: 1 prefetched: 0 | tag: 0xa secure: 0 valid: 1 | set: 0xa9 way: 0x1
	Block: state: 6 (E) writable: 1 readable: 1 dirty: 0 prefetched: 0 | tag: 0xf secure: 0 valid: 1 | set: 0xaa way: 0
	Block: state: 6 (E) writable: 1 readable: 1 dirty: 0 prefetched: 0 | tag: 0x10 secure: 0 valid: 1 | set: 0xaa way: 0x1
	Block: state: 6 (E) writable: 1 readable: 1 dirty: 0 prefetched: 0 | tag: 0x10 secure: 0 valid: 1 | set: 0xab way: 0
	Block: state: 6 (E) writable: 1 readable: 1 dirty: 0 prefetched: 0 | tag: 0xf secure: 0 valid: 1 | set: 0xab way: 0x1
	Block: state: 6 (E) writable: 1 readable: 1 dirty: 0 prefetched: 0 | tag: 0x10 secure: 0 valid: 1 | set: 0xac way: 0
	Block: state: 6 (E) writable: 1 readable: 1 dirty: 0 prefetched: 0 | tag: 0xf secure: 0 valid: 1 | set: 0xac way: 0x1
	Block: state: 6 (E) writable: 1 readable: 1 dirty: 0 prefetched: 0 | tag: 0x10 secure: 0 valid: 1 | set: 0xad way: 0
	Block: state: 6 (E) writable: 1 readable: 1 dirty: 0 prefetched: 0 | tag: 0xf secure: 0 valid: 1 | set: 0xad way: 0x1
	Block: state: 6 (E) writable: 1 readable: 1 dirty: 0 prefetched: 0 | tag: 0xf secure: 0 valid: 1 | set: 0xae way: 0
	Block: state: 6 (E) writable: 1 readable: 1 dirty: 0 prefetched: 0 | tag: 0x10 secure: 0 valid: 1 | set: 0xae way: 0x1
	Block: state: 6 (E) writable: 1 readable: 1 dirty: 0 prefetched: 0 | tag: 0xf secure: 0 valid: 1 | set: 0xaf way: 0
	Block: state: 6 (E) writable: 1 readable: 1 dirty: 0 prefetched: 0 | tag: 0x10 secure: 0 valid: 1 | set: 0xaf way: 0x1
	Block: state: 6 (E) writable: 1 readable: 1 dirty: 0 prefetched: 0 | tag: 0x10 secure: 0 valid: 1 | set: 0xb0 way: 0
	Block: state: 6 (E) writable: 1 readable: 1 dirty: 0 prefetched: 0 | tag: 0xf secure: 0 valid: 1 | set: 0xb0 way: 0x1
	Block: state: 6 (E) writable: 1 readable: 1 dirty: 0 prefetched: 0 | tag: 0x10 secure: 0 valid: 1 | set: 0xb1 way: 0
	Block: state: 6 (E) writable: 1 readable: 1 dirty: 0 prefetched: 0 | tag: 0xf secure: 0 valid: 1 | set: 0xb1 way: 0x1
	Block: state: 6 (E) writable: 1 readable: 1 dirty: 0 prefetched: 0 | tag: 0x10 secure: 0 valid: 1 | set: 0xb2 way: 0
	Block: state: 6 (E) writable: 1 readable: 1 dirty: 0 prefetched: 0 | tag: 0xf secure: 0 valid: 1 | set: 0xb2 way: 0x1
	Block: state: 6 (E) writable: 1 readable: 1 dirty: 0 prefetched: 0 | tag: 0xf secure: 0 valid: 1 | set: 0xb3 way: 0
	Block: state: e (M) writable: 1 readable: 1 dirty: 1 prefetched: 0 | tag: 0xa secure: 0 valid: 1 | set: 0xb3 way: 0x1
	Block: state: 6 (E) writable: 1 readable: 1 dirty: 0 prefetched: 0 | tag: 0xf secure: 0 valid: 1 | set: 0xb4 way: 0
	Block: state: e (M) writable: 1 readable: 1 dirty: 1 prefetched: 0 | tag: 0xa secure: 0 valid: 1 | set: 0xb4 way: 0x1
	Block: state: 6 (E) writable: 1 readable: 1 dirty: 0 prefetched: 0 | tag: 0xf secure: 0 valid: 1 | set: 0xb5 way: 0
	Block: state: 6 (E) writable: 1 readable: 1 dirty: 0 prefetched: 0 | tag: 0x10 secure: 0 valid: 1 | set: 0xb5 way: 0x1
	Block: state: 6 (E) writable: 1 readable: 1 dirty: 0 prefetched: 0 | tag: 0xf secure: 0 valid: 1 | set: 0xb6 way: 0
	Block: state: 6 (E) writable: 1 readable: 1 dirty: 0 prefetched: 0 | tag: 0x10 secure: 0 valid: 1 | set: 0xb6 way: 0x1
	Block: state: e (M) writable: 1 readable: 1 dirty: 1 prefetched: 0 | tag: 0xa secure: 0 valid: 1 | set: 0xb7 way: 0
	Block: state: 6 (E) writable: 1 readable: 1 dirty: 0 prefetched: 0 | tag: 0xf secure: 0 valid: 1 | set: 0xb7 way: 0x1
	Block: state: 6 (E) writable: 1 readable: 1 dirty: 0 prefetched: 0 | tag: 0x10 secure: 0 valid: 1 | set: 0xb8 way: 0
	Block: state: 6 (E) writable: 1 readable: 1 dirty: 0 prefetched: 0 | tag: 0xf secure: 0 valid: 1 | set: 0xb8 way: 0x1
	Block: state: 6 (E) writable: 1 readable: 1 dirty: 0 prefetched: 0 | tag: 0x10 secure: 0 valid: 1 | set: 0xb9 way: 0
	Block: state: 6 (E) writable: 1 readable: 1 dirty: 0 prefetched: 0 | tag: 0xf secure: 0 valid: 1 | set: 0xb9 way: 0x1
	Block: state: 6 (E) writable: 1 readable: 1 dirty: 0 prefetched: 0 | tag: 0x10 secure: 0 valid: 1 | set: 0xba way: 0
	Block: state: 6 (E) writable: 1 readable: 1 dirty: 0 prefetched: 0 | tag: 0xf secure: 0 valid: 1 | set: 0xba way: 0x1
	Block: state: 6 (E) writable: 1 readable: 1 dirty: 0 prefetched: 0 | tag: 0x10 secure: 0 valid: 1 | set: 0xbb way: 0
	Block: state: e (M) writable: 1 readable: 1 dirty: 1 prefetched: 0 | tag: 0x4 secure: 0 valid: 1 | set: 0xbb way: 0x1
	Block: state: e (M) writable: 1 readable: 1 dirty: 1 prefetched: 0 | tag: 0x4 secure: 0 valid: 1 | set: 0xbc way: 0
	Block: state: 6 (E) writable: 1 readable: 1 dirty: 0 prefetched: 0 | tag: 0x10 secure: 0 valid: 1 | set: 0xbc way: 0x1
	Block: state: 6 (E) writable: 1 readable: 1 dirty: 0 prefetched: 0 | tag: 0xa secure: 0 valid: 1 | set: 0xbd way: 0
	Block: state: 6 (E) writable: 1 readable: 1 dirty: 0 prefetched: 0 | tag: 0x10 secure: 0 valid: 1 | set: 0xbd way: 0x1
	Block: state: 6 (E) writable: 1 readable: 1 dirty: 0 prefetched: 0 | tag: 0x10 secure: 0 valid: 1 | set: 0xbe way: 0
	Block: state: e (M) writable: 1 readable: 1 dirty: 1 prefetched: 0 | tag: 0x4 secure: 0 valid: 1 | set: 0xbe way: 0x1
	Block: state: e (M) writable: 1 readable: 1 dirty: 1 prefetched: 0 | tag: 0x4 secure: 0 valid: 1 | set: 0xbf way: 0
	Block: state: 6 (E) writable: 1 readable: 1 dirty: 0 prefetched: 0 | tag: 0x10 secure: 0 valid: 1 | set: 0xbf way: 0x1
	Block: state: e (M) writable: 1 readable: 1 dirty: 1 prefetched: 0 | tag: 0xc secure: 0 valid: 1 | set: 0xc0 way: 0
	Block: state: 6 (E) writable: 1 readable: 1 dirty: 0 prefetched: 0 | tag: 0xf secure: 0 valid: 1 | set: 0xc0 way: 0x1
	Block: state: e (M) writable: 1 readable: 1 dirty: 1 prefetched: 0 | tag: 0xc secure: 0 valid: 1 | set: 0xc1 way: 0
	Block: state: 6 (E) writable: 1 readable: 1 dirty: 0 prefetched: 0 | tag: 0xf secure: 0 valid: 1 | set: 0xc1 way: 0x1
	Block: state: e (M) writable: 1 readable: 1 dirty: 1 prefetched: 0 | tag: 0xc secure: 0 valid: 1 | set: 0xc2 way: 0
	Block: state: 6 (E) writable: 1 readable: 1 dirty: 0 prefetched: 0 | tag: 0xf secure: 0 valid: 1 | set: 0xc2 way: 0x1
	Block: state: e (M) writable: 1 readable: 1 dirty: 1 prefetched: 0 | tag: 0xc secure: 0 valid: 1 | set: 0xc3 way: 0
	Block: state: 6 (E) writable: 1 readable: 1 dirty: 0 prefetched: 0 | tag: 0x11 secure: 0 valid: 1 | set: 0xc3 way: 0x1
	Block: state: e (M) writable: 1 readable: 1 dirty: 1 prefetched: 0 | tag: 0xc secure: 0 valid: 1 | set: 0xc4 way: 0
	Block: state: 6 (E) writable: 1 readable: 1 dirty: 0 prefetched: 0 | tag: 0xf secure: 0 valid: 1 | set: 0xc4 way: 0x1
	Block: state: 6 (E) writable: 1 readable: 1 dirty: 0 prefetched: 0 | tag: 0xf secure: 0 valid: 1 | set: 0xc5 way: 0
	Block: state: e (M) writable: 1 readable: 1 dirty: 1 prefetched: 0 | tag: 0xc secure: 0 valid: 1 | set: 0xc5 way: 0x1
	Block: state: e (M) writable: 1 readable: 1 dirty: 1 prefetched: 0 | tag: 0xa secure: 0 valid: 1 | set: 0xc6 way: 0
	Block: state: e (M) writable: 1 readable: 1 dirty: 1 prefetched: 0 | tag: 0xc secure: 0 valid: 1 | set: 0xc6 way: 0x1
	Block: state: e (M) writable: 1 readable: 1 dirty: 1 prefetched: 0 | tag: 0xc secure: 0 valid: 1 | set: 0xc7 way: 0
	Block: state: e (M) writable: 1 readable: 1 dirty: 1 prefetched: 0 | tag: 0xa secure: 0 valid: 1 | set: 0xc7 way: 0x1
	Block: state: e (M) writable: 1 readable: 1 dirty: 1 prefetched: 0 | tag: 0xc secure: 0 valid: 1 | set: 0xc8 way: 0
	Block: state: e (M) writable: 1 readable: 1 dirty: 1 prefetched: 0 | tag: 0xa secure: 0 valid: 1 | set: 0xc8 way: 0x1
	Block: state: e (M) writable: 1 readable: 1 dirty: 1 prefetched: 0 | tag: 0xc secure: 0 valid: 1 | set: 0xc9 way: 0
	Block: state: 6 (E) writable: 1 readable: 1 dirty: 0 prefetched: 0 | tag: 0xf secure: 0 valid: 1 | set: 0xc9 way: 0x1
	Block: state: 6 (E) writable: 1 readable: 1 dirty: 0 prefetched: 0 | tag: 0xf secure: 0 valid: 1 | set: 0xca way: 0
	Block: state: e (M) writable: 1 readable: 1 dirty: 1 prefetched: 0 | tag: 0xc secure: 0 valid: 1 | set: 0xca way: 0x1
	Block: state: e (M) writable: 1 readable: 1 dirty: 1 prefetched: 0 | tag: 0xc secure: 0 valid: 1 | set: 0xcb way: 0
[...]
	Block: state: e (M) writable: 1 readable: 1 dirty: 1 prefetched: 0 | tag: 0x3 secure: 0 valid: 1 | set: 0x1ac way: 0
	Block: state: 6 (E) writable: 1 readable: 1 dirty: 0 prefetched: 0 | tag: 0x10 secure: 0 valid: 1 | set: 0x1ac way: 0x1
	Block: state: 6 (E) writable: 1 readable: 1 dirty: 0 prefetched: 0 | tag: 0x10 secure: 0 valid: 1 | set: 0x1ad way: 0
	Block: state: e (M) writable: 1 readable: 1 dirty: 1 prefetched: 0 | tag: 0x3 secure: 0 valid: 1 | set: 0x1ad way: 0x1
	Block: state: 6 (E) writable: 1 readable: 1 dirty: 0 prefetched: 0 | tag: 0x10 secure: 0 valid: 1 | set: 0x1ae way: 0
	Block: state: e (M) writable: 1 readable: 1 dirty: 1 prefetched: 0 | tag: 0x3 secure: 0 valid: 1 | set: 0x1ae way: 0x1
	Block: state: 6 (E) writable: 1 readable: 1 dirty: 0 prefetched: 0 | tag: 0x10 secure: 0 valid: 1 | set: 0x1af way: 0
	Block: state: e (M) writable: 1 readable: 1 dirty: 1 prefetched: 0 | tag: 0x3 secure: 0 valid: 1 | set: 0x1af way: 0x1
	Block: state: e (M) writable: 1 readable: 1 dirty: 1 prefetched: 0 | tag: 0x3 secure: 0 valid: 1 | set: 0x1b0 way: 0
	Block: state: 6 (E) writable: 1 readable: 1 dirty: 0 prefetched: 0 | tag: 0x10 secure: 0 valid: 1 | set: 0x1b0 way: 0x1
	Block: state: 6 (E) writable: 1 readable: 1 dirty: 0 prefetched: 0 | tag: 0x10 secure: 0 valid: 1 | set: 0x1b1 way: 0
	Block: state: 6 (E) writable: 1 readable: 1 dirty: 0 prefetched: 0 | tag: 0x10 secure: 0 valid: 1 | set: 0x1b2 way: 0
	Block: state: e (M) writable: 1 readable: 1 dirty: 1 prefetched: 0 | tag: 0x3 secure: 0 valid: 1 | set: 0x1b2 way: 0x1
	Block: state: 6 (E) writable: 1 readable: 1 dirty: 0 prefetched: 0 | tag: 0x10 secure: 0 valid: 1 | set: 0x1b3 way: 0
	Block: state: e (M) writable: 1 readable: 1 dirty: 1 prefetched: 0 | tag: 0x3 secure: 0 valid: 1 | set: 0x1b3 way: 0x1
	Block: state: e (M) writable: 1 readable: 1 dirty: 1 prefetched: 0 | tag: 0x3 secure: 0 valid: 1 | set: 0x1b4 way: 0
	Block: state: 6 (E) writable: 1 readable: 1 dirty: 0 prefetched: 0 | tag: 0x10 secure: 0 valid: 1 | set: 0x1b4 way: 0x1
	Block: state: 6 (E) writable: 1 readable: 1 dirty: 0 prefetched: 0 | tag: 0x10 secure: 0 valid: 1 | set: 0x1b5 way: 0
	Block: state: e (M) writable: 1 readable: 1 dirty: 1 prefetched: 0 | tag: 0x3 secure: 0 valid: 1 | set: 0x1b5 way: 0x1
	Block: state: 6 (E) writable: 1 readable: 1 dirty: 0 prefetched: 0 | tag: 0x10 secure: 0 valid: 1 | set: 0x1b6 way: 0
	Block: state: e (M) writable: 1 readable: 1 dirty: 1 prefetched: 0 | tag: 0x3 secure: 0 valid: 1 | set: 0x1b6 way: 0x1
	Block: state: e (M) writable: 1 readable: 1 dirty: 1 prefetched: 0 | tag: 0x3 secure: 0 valid: 1 | set: 0x1b7 way: 0
	Block: state: 6 (E) writable: 1 readable: 1 dirty: 0 prefetched: 0 | tag: 0x10 secure: 0 valid: 1 | set: 0x1b7 way: 0x1
	Block: state: 6 (E) writable: 1 readable: 1 dirty: 0 prefetched: 0 | tag: 0x10 secure: 0 valid: 1 | set: 0x1b8 way: 0
	Block: state: e (M) writable: 1 readable: 1 dirty: 1 prefetched: 0 | tag: 0x3 secure: 0 valid: 1 | set: 0x1b8 way: 0x1
	Block: state: 6 (E) writable: 1 readable: 1 dirty: 0 prefetched: 0 | tag: 0x13 secure: 0 valid: 1 | set: 0x1b9 way: 0
	Block: state: 6 (E) writable: 1 readable: 1 dirty: 0 prefetched: 0 | tag: 0x10 secure: 0 valid: 1 | set: 0x1b9 way: 0x1
	Block: state: e (M) writable: 1 readable: 1 dirty: 1 prefetched: 0 | tag: 0x13 secure: 0 valid: 1 | set: 0x1ba way: 0
	Block: state: 6 (E) writable: 1 readable: 1 dirty: 0 prefetched: 0 | tag: 0x10 secure: 0 valid: 1 | set: 0x1ba way: 0x1
	Block: state: e (M) writable: 1 readable: 1 dirty: 1 prefetched: 0 | tag: 0x3 secure: 0 valid: 1 | set: 0x1bb way: 0
	Block: state: 6 (E) writable: 1 readable: 1 dirty: 0 prefetched: 0 | tag: 0x10 secure: 0 valid: 1 | set: 0x1bb way: 0x1
	Block: state: e (M) writable: 1 readable: 1 dirty: 1 prefetched: 0 | tag: 0x3 secure: 0 valid: 1 | set: 0x1bc way: 0
	Block: state: 6 (E) writable: 1 readable: 1 dirty: 0 prefetched: 0 | tag: 0x10 secure: 0 valid: 1 | set: 0x1bc way: 0x1
	Block: state: 6 (E) writable: 1 readable: 1 dirty: 0 prefetched: 0 | tag: 0xc secure: 0 valid: 1 | set: 0x1bd way: 0
	Block: state: 6 (E) writable: 1 readable: 1 dirty: 0 prefetched: 0 | tag: 0x10 secure: 0 valid: 1 | set: 0x1bd way: 0x1
	Block: state: 6 (E) writable: 1 readable: 1 dirty: 0 prefetched: 0 | tag: 0x10 secure: 0 valid: 1 | set: 0x1be way: 0
	Block: state: e (M) writable: 1 readable: 1 dirty: 1 prefetched: 0 | tag: 0xa secure: 0 valid: 1 | set: 0x1be way: 0x1
	Block: state: e (M) writable: 1 readable: 1 dirty: 1 prefetched: 0 | tag: 0xa secure: 0 valid: 1 | set: 0x1bf way: 0
	Block: state: 6 (E) writable: 1 readable: 1 dirty: 0 prefetched: 0 | tag: 0x10 secure: 0 valid: 1 | set: 0x1bf way: 0x1
	Block: state: 6 (E) writable: 1 readable: 1 dirty: 0 prefetched: 0 | tag: 0xf secure: 0 valid: 1 | set: 0x1c0 way: 0
	Block: state: 6 (E) writable: 1 readable: 1 dirty: 0 prefetched: 0 | tag: 0x10 secure: 0 valid: 1 | set: 0x1c0 way: 0x1
	Block: state: 6 (E) writable: 1 readable: 1 dirty: 0 prefetched: 0 | tag: 0xf secure: 0 valid: 1 | set: 0x1c1 way: 0
	Block: state: 6 (E) writable: 1 readable: 1 dirty: 0 prefetched: 0 | tag: 0x10 secure: 0 valid: 1 | set: 0x1c1 way: 0x1
	Block: state: 6 (E) writable: 1 readable: 1 dirty: 0 prefetched: 0 | tag: 0xf secure: 0 valid: 1 | set: 0x1c2 way: 0
	Block: state: 6 (E) writable: 1 readable: 1 dirty: 0 prefetched: 0 | tag: 0x10 secure: 0 valid: 1 | set: 0x1c2 way: 0x1
	Block: state: 6 (E) writable: 1 readable: 1 dirty: 0 prefetched: 0 | tag: 0xf secure: 0 valid: 1 | set: 0x1c3 way: 0
	Block: state: 6 (E) writable: 1 readable: 1 dirty: 0 prefetched: 0 | tag: 0x10 secure: 0 valid: 1 | set: 0x1c3 way: 0x1
	Block: state: 6 (E) writable: 1 readable: 1 dirty: 0 prefetched: 0 | tag: 0x10 secure: 0 valid: 1 | set: 0x1c4 way: 0
	Block: state: 6 (E) writable: 1 readable: 1 dirty: 0 prefetched: 0 | tag: 0xf secure: 0 valid: 1 | set: 0x1c4 way: 0x1
	Block: state: 6 (E) writable: 1 readable: 1 dirty: 0 prefetched: 0 | tag: 0xf secure: 0 valid: 1 | set: 0x1c5 way: 0
	Block: state: 6 (E) writable: 1 readable: 1 dirty: 0 prefetched: 0 | tag: 0x10 secure: 0 valid: 1 | set: 0x1c5 way: 0x1
	Block: state: 6 (E) writable: 1 readable: 1 dirty: 0 prefetched: 0 | tag: 0xf secure: 0 valid: 1 | set: 0x1c6 way: 0
	Block: state: 6 (E) writable: 1 readable: 1 dirty: 0 prefetched: 0 | tag: 0x10 secure: 0 valid: 1 | set: 0x1c6 way: 0x1
	Block: state: 6 (E) writable: 1 readable: 1 dirty: 0 prefetched: 0 | tag: 0xf secure: 0 valid: 1 | set: 0x1c7 way: 0
	Block: state: 6 (E) writable: 1 readable: 1 dirty: 0 prefetched: 0 | tag: 0x10 secure: 0 valid: 1 | set: 0x1c7 way: 0x1
	Block: state: 6 (E) writable: 1 readable: 1 dirty: 0 prefetched: 0 | tag: 0xf secure: 0 valid: 1 | set: 0x1c8 way: 0
	Block: state: 6 (E) writable: 1 readable: 1 dirty: 0 prefetched: 0 | tag: 0x10 secure: 0 valid: 1 | set: 0x1c8 way: 0x1
	Block: state: 6 (E) writable: 1 readable: 1 dirty: 0 prefetched: 0 | tag: 0x15 secure: 0 valid: 1 | set: 0x1c9 way: 0
	Block: state: 6 (E) writable: 1 readable: 1 dirty: 0 prefetched: 0 | tag: 0xf secure: 0 valid: 1 | set: 0x1c9 way: 0x1
	Block: state: 6 (E) writable: 1 readable: 1 dirty: 0 prefetched: 0 | tag: 0x10 secure: 0 valid: 1 | set: 0x1ca way: 0
	Block: state: 6 (E) writable: 1 readable: 1 dirty: 0 prefetched: 0 | tag: 0xf secure: 0 valid: 1 | set: 0x1ca way: 0x1
	Block: state: 6 (E) writable: 1 readable: 1 dirty: 0 prefetched: 0 | tag: 0xf secure: 0 valid: 1 | set: 0x1cb way: 0
	Block: state: 6 (E) writable: 1 readable: 1 dirty: 0 prefetched: 0 | tag: 0x10 secure: 0 valid: 1 | set: 0x1cb way: 0x1
	Block: state: 6 (E) writable: 1 readable: 1 dirty: 0 prefetched: 0 | tag: 0xf secure: 0 valid: 1 | set: 0x1cc way: 0
	Block: state: 6 (E) writable: 1 readable: 1 dirty: 0 prefetched: 0 | tag: 0x15 secure: 0 valid: 1 | set: 0x1cc way: 0x1
	Block: state: 6 (E) writable: 1 readable: 1 dirty: 0 prefetched: 0 | tag: 0xf secure: 0 valid: 1 | set: 0x1cd way: 0
	Block: state: 6 (E) writable: 1 readable: 1 dirty: 0 prefetched: 0 | tag: 0x10 secure: 0 valid: 1 | set: 0x1cd way: 0x1
	Block: state: 6 (E) writable: 1 readable: 1 dirty: 0 prefetched: 0 | tag: 0xf secure: 0 valid: 1 | set: 0x1ce way: 0
	Block: state: 6 (E) writable: 1 readable: 1 dirty: 0 prefetched: 0 | tag: 0x10 secure: 0 valid: 1 | set: 0x1ce way: 0x1
	Block: state: 6 (E) writable: 1 readable: 1 dirty: 0 prefetched: 0 | tag: 0xf secure: 0 valid: 1 | set: 0x1cf way: 0
	Block: state: 6 (E) writable: 1 readable: 1 dirty: 0 prefetched: 0 | tag: 0x10 secure: 0 valid: 1 | set: 0x1cf way: 0x1
	Block: state: 6 (E) writable: 1 readable: 1 dirty: 0 prefetched: 0 | tag: 0x10 secure: 0 valid: 1 | set: 0x1d0 way: 0
	Block: state: 6 (E) writable: 1 readable: 1 dirty: 0 prefetched: 0 | tag: 0xf secure: 0 valid: 1 | set: 0x1d0 way: 0x1
	Block: state: 6 (E) writable: 1 readable: 1 dirty: 0 prefetched: 0 | tag: 0x10 secure: 0 valid: 1 | set: 0x1d1 way: 0
	Block: state: 6 (E) writable: 1 readable: 1 dirty: 0 prefetched: 0 | tag: 0xf secure: 0 valid: 1 | set: 0x1d1 way: 0x1
	Block: state: 6 (E) writable: 1 readable: 1 dirty: 0 prefetched: 0 | tag: 0x10 secure: 0 valid: 1 | set: 0x1d2 way: 0
	Block: state: 6 (E) writable: 1 readable: 1 dirty: 0 prefetched: 0 | tag: 0xf secure: 0 valid: 1 | set: 0x1d2 way: 0x1
	Block: state: 6 (E) writable: 1 readable: 1 dirty: 0 prefetched: 0 | tag: 0xf secure: 0 valid: 1 | set: 0x1d3 way: 0
	Block: state: 6 (E) writable: 1 readable: 1 dirty: 0 prefetched: 0 | tag: 0x10 secure: 0 valid: 1 | set: 0x1d3 way: 0x1
	Block: state: 6 (E) writable: 1 readable: 1 dirty: 0 prefetched: 0 | tag: 0x10 secure: 0 valid: 1 | set: 0x1d4 way: 0
	Block: state: 6 (E) writable: 1 readable: 1 dirty: 0 prefetched: 0 | tag: 0xf secure: 0 valid: 1 | set: 0x1d4 way: 0x1
	Block: state: 6 (E) writable: 1 readable: 1 dirty: 0 prefetched: 0 | tag: 0xf secure: 0 valid: 1 | set: 0x1d5 way: 0
	Block: state: 6 (E) writable: 1 readable: 1 dirty: 0 prefetched: 0 | tag: 0x10 secure: 0 valid: 1 | set: 0x1d5 way: 0x1
	Block: state: 6 (E) writable: 1 readable: 1 dirty: 0 prefetched: 0 | tag: 0x10 secure: 0 valid: 1 | set: 0x1d6 way: 0
	Block: state: 6 (E) writable: 1 readable: 1 dirty: 0 prefetched: 0 | tag: 0xf secure: 0 valid: 1 | set: 0x1d6 way: 0x1
	Block: state: 6 (E) writable: 1 readable: 1 dirty: 0 prefetched: 0 | tag: 0x10 secure: 0 valid: 1 | set: 0x1d7 way: 0
	Block: state: 6 (E) writable: 1 readable: 1 dirty: 0 prefetched: 0 | tag: 0xf secure: 0 valid: 1 | set: 0x1d7 way: 0x1
	Block: state: 6 (E) writable: 1 readable: 1 dirty: 0 prefetched: 0 | tag: 0xf secure: 0 valid: 1 | set: 0x1d8 way: 0
	Block: state: 6 (E) writable: 1 readable: 1 dirty: 0 prefetched: 0 | tag: 0x10 secure: 0 valid: 1 | set: 0x1d8 way: 0x1
	Block: state: 6 (E) writable: 1 readable: 1 dirty: 0 prefetched: 0 | tag: 0xf secure: 0 valid: 1 | set: 0x1d9 way: 0
	Block: state: 6 (E) writable: 1 readable: 1 dirty: 0 prefetched: 0 | tag: 0x10 secure: 0 valid: 1 | set: 0x1d9 way: 0x1
	Block: state: 6 (E) writable: 1 readable: 1 dirty: 0 prefetched: 0 | tag: 0x10 secure: 0 valid: 1 | set: 0x1da way: 0
	Block: state: 6 (E) writable: 1 readable: 1 dirty: 0 prefetched: 0 | tag: 0xf secure: 0 valid: 1 | set: 0x1da way: 0x1
	Block: state: 6 (E) writable: 1 readable: 1 dirty: 0 prefetched: 0 | tag: 0x10 secure: 0 valid: 1 | set: 0x1db way: 0
	Block: state: 6 (E) writable: 1 readable: 1 dirty: 0 prefetched: 0 | tag: 0xf secure: 0 valid: 1 | set: 0x1db way: 0x1
	Block: state: 6 (E) writable: 1 readable: 1 dirty: 0 prefetched: 0 | tag: 0xf secure: 0 valid: 1 | set: 0x1dc way: 0
	Block: state: 6 (E) writable: 1 readable: 1 dirty: 0 prefetched: 0 | tag: 0x10 secure: 0 valid: 1 | set: 0x1dc way: 0x1
	Block: state: 6 (E) writable: 1 readable: 1 dirty: 0 prefetched: 0 | tag: 0x10 secure: 0 valid: 1 | set: 0x1dd way: 0
	Block: state: 6 (E) writable: 1 readable: 1 dirty: 0 prefetched: 0 | tag: 0xf secure: 0 valid: 1 | set: 0x1dd way: 0x1
	Block: state: 6 (E) writable: 1 readable: 1 dirty: 0 prefetched: 0 | tag: 0x10 secure: 0 valid: 1 | set: 0x1de way: 0
	Block: state: 6 (E) writable: 1 readable: 1 dirty: 0 prefetched: 0 | tag: 0xf secure: 0 valid: 1 | set: 0x1de way: 0x1
	Block: state: 6 (E) writable: 1 readable: 1 dirty: 0 prefetched: 0 | tag: 0xf secure: 0 valid: 1 | set: 0x1df way: 0
	Block: state: 6 (E) writable: 1 readable: 1 dirty: 0 prefetched: 0 | tag: 0x10 secure: 0 valid: 1 | set: 0x1df way: 0x1
	Block: state: 6 (E) writable: 1 readable: 1 dirty: 0 prefetched: 0 | tag: 0xf secure: 0 valid: 1 | set: 0x1e0 way: 0
	Block: state: 6 (E) writable: 1 readable: 1 dirty: 0 prefetched: 0 | tag: 0x10 secure: 0 valid: 1 | set: 0x1e0 way: 0x1
	Block: state: 6 (E) writable: 1 readable: 1 dirty: 0 prefetched: 0 | tag: 0x10 secure: 0 valid: 1 | set: 0x1e1 way: 0
	Block: state: 6 (E) writable: 1 readable: 1 dirty: 0 prefetched: 0 | tag: 0xf secure: 0 valid: 1 | set: 0x1e1 way: 0x1
	Block: state: 6 (E) writable: 1 readable: 1 dirty: 0 prefetched: 0 | tag: 0xf secure: 0 valid: 1 | set: 0x1e2 way: 0
	Block: state: 6 (E) writable: 1 readable: 1 dirty: 0 prefetched: 0 | tag: 0x10 secure: 0 valid: 1 | set: 0x1e2 way: 0x1
	Block: state: 6 (E) writable: 1 readable: 1 dirty: 0 prefetched: 0 | tag: 0x10 secure: 0 valid: 1 | set: 0x1e3 way: 0
	Block: state: 6 (E) writable: 1 readable: 1 dirty: 0 prefetched: 0 | tag: 0xf secure: 0 valid: 1 | set: 0x1e3 way: 0x1
	Block: state: 6 (E) writable: 1 readable: 1 dirty: 0 prefetched: 0 | tag: 0x10 secure: 0 valid: 1 | set: 0x1e4 way: 0
	Block: state: 6 (E) writable: 1 readable: 1 dirty: 0 prefetched: 0 | tag: 0xf secure: 0 valid: 1 | set: 0x1e4 way: 0x1
	Block: state: 6 (E) writable: 1 readable: 1 dirty: 0 prefetched: 0 | tag: 0x10 secure: 0 valid: 1 | set: 0x1e5 way: 0
	Block: state: 6 (E) writable: 1 readable: 1 dirty: 0 prefetched: 0 | tag: 0xf secure: 0 valid: 1 | set: 0x1e5 way: 0x1
	Block: state: 6 (E) writable: 1 readable: 1 dirty: 0 prefetched: 0 | tag: 0xf secure: 0 valid: 1 | set: 0x1e6 way: 0
	Block: state: 6 (E) writable: 1 readable: 1 dirty: 0 prefetched: 0 | tag: 0x10 secure: 0 valid: 1 | set: 0x1e6 way: 0x1
	Block: state: 6 (E) writable: 1 readable: 1 dirty: 0 prefetched: 0 | tag: 0xf secure: 0 valid: 1 | set: 0x1e7 way: 0
	Block: state: 6 (E) writable: 1 readable: 1 dirty: 0 prefetched: 0 | tag: 0x10 secure: 0 valid: 1 | set: 0x1e7 way: 0x1
	Block: state: 6 (E) writable: 1 readable: 1 dirty: 0 prefetched: 0 | tag: 0xf secure: 0 valid: 1 | set: 0x1e8 way: 0
	Block: state: 6 (E) writable: 1 readable: 1 dirty: 0 prefetched: 0 | tag: 0x10 secure: 0 valid: 1 | set: 0x1e8 way: 0x1
	Block: state: 6 (E) writable: 1 readable: 1 dirty: 0 prefetched: 0 | tag: 0xf secure: 0 valid: 1 | set: 0x1e9 way: 0
	Block: state: 6 (E) writable: 1 readable: 1 dirty: 0 prefetched: 0 | tag: 0x10 secure: 0 valid: 1 | set: 0x1e9 way: 0x1
	Block: state: 6 (E) writable: 1 readable: 1 dirty: 0 prefetched: 0 | tag: 0xf secure: 0 valid: 1 | set: 0x1ea way: 0
	Block: state: 6 (E) writable: 1 readable: 1 dirty: 0 prefetched: 0 | tag: 0x10 secure: 0 valid: 1 | set: 0x1ea way: 0x1
	Block: state: 6 (E) writable: 1 readable: 1 dirty: 0 prefetched: 0 | tag: 0xf secure: 0 valid: 1 | set: 0x1eb way: 0
	Block: state: 6 (E) writable: 1 readable: 1 dirty: 0 prefetched: 0 | tag: 0x10 secure: 0 valid: 1 | set: 0x1eb way: 0x1
	Block: state: 6 (E) writable: 1 readable: 1 dirty: 0 prefetched: 0 | tag: 0xf secure: 0 valid: 1 | set: 0x1ec way: 0
	Block: state: 6 (E) writable: 1 readable: 1 dirty: 0 prefetched: 0 | tag: 0x10 secure: 0 valid: 1 | set: 0x1ec way: 0x1
	Block: state: 6 (E) writable: 1 readable: 1 dirty: 0 prefetched: 0 | tag: 0xf secure: 0 valid: 1 | set: 0x1ed way: 0
	Block: state: 6 (E) writable: 1 readable: 1 dirty: 0 prefetched: 0 | tag: 0x10 secure: 0 valid: 1 | set: 0x1ed way: 0x1
	Block: state: 6 (E) writable: 1 readable: 1 dirty: 0 prefetched: 0 | tag: 0xf secure: 0 valid: 1 | set: 0x1ee way: 0
	Block: state: 6 (E) writable: 1 readable: 1 dirty: 0 prefetched: 0 | tag: 0x10 secure: 0 valid: 1 | set: 0x1ee way: 0x1
	Block: state: 6 (E) writable: 1 readable: 1 dirty: 0 prefetched: 0 | tag: 0x10 secure: 0 valid: 1 | set: 0x1ef way: 0
	Block: state: 6 (E) writable: 1 readable: 1 dirty: 0 prefetched: 0 | tag: 0xf secure: 0 valid: 1 | set: 0x1ef way: 0x1
	Block: state: 6 (E) writable: 1 readable: 1 dirty: 0 prefetched: 0 | tag: 0x10 secure: 0 valid: 1 | set: 0x1f0 way: 0
	Block: state: 6 (E) writable: 1 readable: 1 dirty: 0 prefetched: 0 | tag: 0xf secure: 0 valid: 1 | set: 0x1f0 way: 0x1
	Block: state: 6 (E) writable: 1 readable: 1 dirty: 0 prefetched: 0 | tag: 0xf secure: 0 valid: 1 | set: 0x1f1 way: 0
	Block: state: 6 (E) writable: 1 readable: 1 dirty: 0 prefetched: 0 | tag: 0x10 secure: 0 valid: 1 | set: 0x1f1 way: 0x1
	Block: state: 6 (E) writable: 1 readable: 1 dirty: 0 prefetched: 0 | tag: 0xf secure: 0 valid: 1 | set: 0x1f2 way: 0
	Block: state: 6 (E) writable: 1 readable: 1 dirty: 0 prefetched: 0 | tag: 0x10 secure: 0 valid: 1 | set: 0x1f2 way: 0x1
	Block: state: 6 (E) writable: 1 readable: 1 dirty: 0 prefetched: 0 | tag: 0xf secure: 0 valid: 1 | set: 0x1f3 way: 0
	Block: state: 6 (E) writable: 1 readable: 1 dirty: 0 prefetched: 0 | tag: 0x10 secure: 0 valid: 1 | set: 0x1f3 way: 0x1
	Block: state: 6 (E) writable: 1 readable: 1 dirty: 0 prefetched: 0 | tag: 0xf secure: 0 valid: 1 | set: 0x1f4 way: 0
	Block: state: 6 (E) writable: 1 readable: 1 dirty: 0 prefetched: 0 | tag: 0x10 secure: 0 valid: 1 | set: 0x1f4 way: 0x1
	Block: state: 6 (E) writable: 1 readable: 1 dirty: 0 prefetched: 0 | tag: 0x10 secure: 0 valid: 1 | set: 0x1f5 way: 0
	Block: state: 6 (E) writable: 1 readable: 1 dirty: 0 prefetched: 0 | tag: 0xf secure: 0 valid: 1 | set: 0x1f5 way: 0x1
	Block: state: 6 (E) writable: 1 readable: 1 dirty: 0 prefetched: 0 | tag: 0xf secure: 0 valid: 1 | set: 0x1f6 way: 0
	Block: state: 6 (E) writable: 1 readable: 1 dirty: 0 prefetched: 0 | tag: 0xe secure: 0 valid: 1 | set: 0x1f6 way: 0x1
	Block: state: 6 (E) writable: 1 readable: 1 dirty: 0 prefetched: 0 | tag: 0xf secure: 0 valid: 1 | set: 0x1f7 way: 0
	Block: state: 6 (E) writable: 1 readable: 1 dirty: 0 prefetched: 0 | tag: 0xe secure: 0 valid: 1 | set: 0x1f7 way: 0x1
	Block: state: 6 (E) writable: 1 readable: 1 dirty: 0 prefetched: 0 | tag: 0xe secure: 0 valid: 1 | set: 0x1f8 way: 0
	Block: state: 6 (E) writable: 1 readable: 1 dirty: 0 prefetched: 0 | tag: 0xf secure: 0 valid: 1 | set: 0x1f8 way: 0x1
	Block: state: 6 (E) writable: 1 readable: 1 dirty: 0 prefetched: 0 | tag: 0xe secure: 0 valid: 1 | set: 0x1f9 way: 0
	Block: state: 6 (E) writable: 1 readable: 1 dirty: 0 prefetched: 0 | tag: 0xf secure: 0 valid: 1 | set: 0x1f9 way: 0x1
	Block: state: 6 (E) writable: 1 readable: 1 dirty: 0 prefetched: 0 | tag: 0xf secure: 0 valid: 1 | set: 0x1fa way: 0
	Block: state: 6 (E) writable: 1 readable: 1 dirty: 0 prefetched: 0 | tag: 0xe secure: 0 valid: 1 | set: 0x1fa way: 0x1
	Block: state: 6 (E) writable: 1 readable: 1 dirty: 0 prefetched: 0 | tag: 0xf secure: 0 valid: 1 | set: 0x1fb way: 0
	Block: state: 6 (E) writable: 1 readable: 1 dirty: 0 prefetched: 0 | tag: 0xe secure: 0 valid: 1 | set: 0x1fb way: 0x1
	Block: state: 6 (E) writable: 1 readable: 1 dirty: 0 prefetched: 0 | tag: 0xe secure: 0 valid: 1 | set: 0x1fc way: 0
	Block: state: 6 (E) writable: 1 readable: 1 dirty: 0 prefetched: 0 | tag: 0xf secure: 0 valid: 1 | set: 0x1fc way: 0x1
	Block: state: 6 (E) writable: 1 readable: 1 dirty: 0 prefetched: 0 | tag: 0xf secure: 0 valid: 1 | set: 0x1fd way: 0
	Block: state: 6 (E) writable: 1 readable: 1 dirty: 0 prefetched: 0 | tag: 0xe secure: 0 valid: 1 | set: 0x1fd way: 0x1
	Block: state: 6 (E) writable: 1 readable: 1 dirty: 0 prefetched: 0 | tag: 0xe secure: 0 valid: 1 | set: 0x1fe way: 0
	Block: state: 6 (E) writable: 1 readable: 1 dirty: 0 prefetched: 0 | tag: 0xf secure: 0 valid: 1 | set: 0x1fe way: 0x1
	Block: state: 6 (E) writable: 1 readable: 1 dirty: 0 prefetched: 0 | tag: 0xf secure: 0 valid: 1 | set: 0x1ff way: 0
	Block: state: 6 (E) writable: 1 readable: 1 dirty: 0 prefetched: 0 | tag: 0xe secure: 0 valid: 1 | set: 0x1ff way: 0x1

