build/X86/sim/debug.cc:89: warn: need to stop all queues
Global frequency set at 1000000000000 ticks per second
build/X86/mem/dram_interface.cc:690: warn: DRAM device capacity (8192 Mbytes) does not match the address range assigned (512 Mbytes)
0: system.remote_gdb: listening for remote gdb on port 7000
gem5 Simulator System.  https://www.gem5.org
gem5 is copyrighted software; use the --copyright option for details.

gem5 version 22.0.0.2
gem5 compiled Nov 29 2022 19:19:23
gem5 started Dec  6 2022 22:01:37
gem5 executing on csel-atlas, pid 1908188
command line: /export/scratch/users/huan2618/gem5/build/X86/gem5.opt --debug-flags=Cache --debug-start=1085349000 --debug-break=1185349000 simple_sys.py

/home/huan2618/Desktop/spectre_simulation/visualization/demo
Beginning simulation!
build/X86/sim/simulate.cc:194: info: Entering event queue @ 0.  Starting simulation...
build/X86/sim/mem_state.cc:443: info: Increasing stack size by one page.
build/X86/sim/syscall_emul.cc:74: warn: ignoring syscall mprotect(...)
build/X86/sim/syscall_emul.cc:74: warn: ignoring syscall mprotect(...)
build/X86/sim/syscall_emul.cc:74: warn: ignoring syscall mprotect(...)
hit time in this machine is 28
misstime in this machine is 92
1085356000: system.cpu.dcache: access for WriteReq [54d00:54d07] hit state: e (M) writable: 1 readable: 1 dirty: 1 prefetched: 0 | tag: 0xa secure: 0 valid: 1 | set: 0x134 way: 0
1085359000: system.cpu.dcache: access for CleanInvalidReq [22260:22260] PoC miss
1085361000: system.cpu.dcache: sendMSHRQueuePacket: MSHR CleanInvalidReq [22260:22260] PoC
1085361000: system.l2cache: access for CleanInvalidReq [22260:22260] PoC hit state: e (M) writable: 1 readable: 1 dirty: 1 prefetched: 0 | tag: 0x4 secure: 0 valid: 1 | set: 0x89 way: 0
1085382000: system.l2cache: sendMSHRQueuePacket: MSHR CleanInvalidReq [22260:22260] PoC
1085382000: system.l2cache: Create WriteClean [22240:2227f] PoC writable: 1, dirty: 1
1085382000: system.cpu.dcache: Deferring snoop on in-service MSHR to blk 0x22240 (ns).mshrs: [0x22240:0x2227f](ns) Forward AllocOnFill  state:  InSvc    HasFromCache
      Targets:
        FromCPU: CleanInvalidReq [22260:22260] PoC

1085382001: system.l2cache: sendWriteQueuePacket: write WriteClean [22240:2227f] PoC
1085383000: system.l2cache: sendWriteQueuePacket: write WriteClean [22240:2227f] PoC
1085390000: system.l2cache: recvTimingResp: Handling response CleanInvalidResp [22260:22260] PoC
1085411000: system.cpu.dcache: recvTimingResp: Handling response CleanInvalidResp [22260:22260] PoC
1085423000: system.cpu.dcache: access for ReadReq [54cc8:54ccb] hit state: e (M) writable: 1 readable: 1 dirty: 1 prefetched: 0 | tag: 0xa secure: 0 valid: 1 | set: 0x133 way: 0
1085423000: system.cpu.dcache: access for ReadReq [54cc8:54ccb] hit state: e (M) writable: 1 readable: 1 dirty: 1 prefetched: 0 | tag: 0xa secure: 0 valid: 1 | set: 0x133 way: 0
1085423000: system.cpu.dcache: access for ReadReq [54cc8:54ccb] hit state: e (M) writable: 1 readable: 1 dirty: 1 prefetched: 0 | tag: 0xa secure: 0 valid: 1 | set: 0x133 way: 0
1085423000: system.cpu.dcache: access for ReadReq [54d00:54d07] hit state: e (M) writable: 1 readable: 1 dirty: 1 prefetched: 0 | tag: 0xa secure: 0 valid: 1 | set: 0x134 way: 0
1085442000: system.cpu.dcache: access for WriteReq [54cc8:54ccb] hit state: e (M) writable: 1 readable: 1 dirty: 1 prefetched: 0 | tag: 0xa secure: 0 valid: 1 | set: 0x133 way: 0
1085445000: system.cpu.dcache: access for ReadReq [54cc8:54ccb] hit state: e (M) writable: 1 readable: 1 dirty: 1 prefetched: 0 | tag: 0xa secure: 0 valid: 1 | set: 0x133 way: 0
1085447000: system.cpu.dcache: access for ReadReq [54cc8:54ccb] hit state: e (M) writable: 1 readable: 1 dirty: 1 prefetched: 0 | tag: 0xa secure: 0 valid: 1 | set: 0x133 way: 0
1085457000: system.cpu.dcache: access for WriteReq [54d00:54d07] hit state: e (M) writable: 1 readable: 1 dirty: 1 prefetched: 0 | tag: 0xa secure: 0 valid: 1 | set: 0x134 way: 0
1085460000: system.cpu.dcache: access for CleanInvalidReq [22460:22460] PoC miss
1085462000: system.cpu.dcache: sendMSHRQueuePacket: MSHR CleanInvalidReq [22460:22460] PoC
1085462000: system.l2cache: access for CleanInvalidReq [22460:22460] PoC hit state: e (M) writable: 1 readable: 1 dirty: 1 prefetched: 0 | tag: 0x4 secure: 0 valid: 1 | set: 0x91 way: 0x6
1085483000: system.l2cache: sendMSHRQueuePacket: MSHR CleanInvalidReq [22460:22460] PoC
1085483000: system.l2cache: Create WriteClean [22440:2247f] PoC writable: 1, dirty: 1
1085483000: system.cpu.dcache: Deferring snoop on in-service MSHR to blk 0x22440 (ns).mshrs: [0x22440:0x2247f](ns) Forward AllocOnFill  state:  InSvc    HasFromCache
      Targets:
        FromCPU: CleanInvalidReq [22460:22460] PoC

1085483001: system.l2cache: sendWriteQueuePacket: write WriteClean [22440:2247f] PoC
1085484000: system.l2cache: sendWriteQueuePacket: write WriteClean [22440:2247f] PoC
1085491000: system.l2cache: recvTimingResp: Handling response CleanInvalidResp [22460:22460] PoC
1085512000: system.cpu.dcache: recvTimingResp: Handling response CleanInvalidResp [22460:22460] PoC
1085524000: system.cpu.dcache: access for ReadReq [54cc8:54ccb] hit state: e (M) writable: 1 readable: 1 dirty: 1 prefetched: 0 | tag: 0xa secure: 0 valid: 1 | set: 0x133 way: 0
1085524000: system.cpu.dcache: access for ReadReq [54cc8:54ccb] hit state: e (M) writable: 1 readable: 1 dirty: 1 prefetched: 0 | tag: 0xa secure: 0 valid: 1 | set: 0x133 way: 0
1085524000: system.cpu.dcache: access for ReadReq [54cc8:54ccb] hit state: e (M) writable: 1 readable: 1 dirty: 1 prefetched: 0 | tag: 0xa secure: 0 valid: 1 | set: 0x133 way: 0
1085524000: system.cpu.dcache: access for ReadReq [54d00:54d07] hit state: e (M) writable: 1 readable: 1 dirty: 1 prefetched: 0 | tag: 0xa secure: 0 valid: 1 | set: 0x134 way: 0
1085543000: system.cpu.dcache: access for WriteReq [54cc8:54ccb] hit state: e (M) writable: 1 readable: 1 dirty: 1 prefetched: 0 | tag: 0xa secure: 0 valid: 1 | set: 0x133 way: 0
1085546000: system.cpu.dcache: access for ReadReq [54cc8:54ccb] hit state: e (M) writable: 1 readable: 1 dirty: 1 prefetched: 0 | tag: 0xa secure: 0 valid: 1 | set: 0x133 way: 0
1085548000: system.cpu.dcache: access for ReadReq [54cc8:54ccb] hit state: e (M) writable: 1 readable: 1 dirty: 1 prefetched: 0 | tag: 0xa secure: 0 valid: 1 | set: 0x133 way: 0
1085558000: system.cpu.dcache: access for WriteReq [54d00:54d07] hit state: e (M) writable: 1 readable: 1 dirty: 1 prefetched: 0 | tag: 0xa secure: 0 valid: 1 | set: 0x134 way: 0
1085561000: system.cpu.dcache: access for CleanInvalidReq [22660:22660] PoC miss
1085563000: system.cpu.dcache: sendMSHRQueuePacket: MSHR CleanInvalidReq [22660:22660] PoC
1085563000: system.l2cache: access for CleanInvalidReq [22660:22660] PoC hit state: e (M) writable: 1 readable: 1 dirty: 1 prefetched: 0 | tag: 0x4 secure: 0 valid: 1 | set: 0x99 way: 0x5
1085584000: system.l2cache: sendMSHRQueuePacket: MSHR CleanInvalidReq [22660:22660] PoC
1085584000: system.l2cache: Create WriteClean [22640:2267f] PoC writable: 1, dirty: 1
1085584000: system.cpu.dcache: Deferring snoop on in-service MSHR to blk 0x22640 (ns).mshrs: [0x22640:0x2267f](ns) Forward AllocOnFill  state:  InSvc    HasFromCache
      Targets:
        FromCPU: CleanInvalidReq [22660:22660] PoC

1085584001: system.l2cache: sendWriteQueuePacket: write WriteClean [22640:2267f] PoC
1085585000: system.l2cache: sendWriteQueuePacket: write WriteClean [22640:2267f] PoC
1085592000: system.l2cache: recvTimingResp: Handling response CleanInvalidResp [22660:22660] PoC
1085613000: system.cpu.dcache: recvTimingResp: Handling response CleanInvalidResp [22660:22660] PoC
1085625000: system.cpu.dcache: access for ReadReq [54cc8:54ccb] hit state: e (M) writable: 1 readable: 1 dirty: 1 prefetched: 0 | tag: 0xa secure: 0 valid: 1 | set: 0x133 way: 0
1085625000: system.cpu.dcache: access for ReadReq [54cc8:54ccb] hit state: e (M) writable: 1 readable: 1 dirty: 1 prefetched: 0 | tag: 0xa secure: 0 valid: 1 | set: 0x133 way: 0
1085625000: system.cpu.dcache: access for ReadReq [54cc8:54ccb] hit state: e (M) writable: 1 readable: 1 dirty: 1 prefetched: 0 | tag: 0xa secure: 0 valid: 1 | set: 0x133 way: 0
1085625000: system.cpu.dcache: access for ReadReq [54d00:54d07] hit state: e (M) writable: 1 readable: 1 dirty: 1 prefetched: 0 | tag: 0xa secure: 0 valid: 1 | set: 0x134 way: 0
1085644000: system.cpu.dcache: access for WriteReq [54cc8:54ccb] hit state: e (M) writable: 1 readable: 1 dirty: 1 prefetched: 0 | tag: 0xa secure: 0 valid: 1 | set: 0x133 way: 0
1085647000: system.cpu.dcache: access for ReadReq [54cc8:54ccb] hit state: e (M) writable: 1 readable: 1 dirty: 1 prefetched: 0 | tag: 0xa secure: 0 valid: 1 | set: 0x133 way: 0
1085649000: system.cpu.dcache: access for ReadReq [54cc8:54ccb] hit state: e (M) writable: 1 readable: 1 dirty: 1 prefetched: 0 | tag: 0xa secure: 0 valid: 1 | set: 0x133 way: 0
1085659000: system.cpu.dcache: access for WriteReq [54d00:54d07] hit state: e (M) writable: 1 readable: 1 dirty: 1 prefetched: 0 | tag: 0xa secure: 0 valid: 1 | set: 0x134 way: 0
1085662000: system.cpu.dcache: access for CleanInvalidReq [22860:22860] PoC miss
1085664000: system.cpu.dcache: sendMSHRQueuePacket: MSHR CleanInvalidReq [22860:22860] PoC
1085664000: system.l2cache: access for CleanInvalidReq [22860:22860] PoC hit state: e (M) writable: 1 readable: 1 dirty: 1 prefetched: 0 | tag: 0x4 secure: 0 valid: 1 | set: 0xa1 way: 0x7
1085685000: system.l2cache: sendMSHRQueuePacket: MSHR CleanInvalidReq [22860:22860] PoC
1085685000: system.l2cache: Create WriteClean [22840:2287f] PoC writable: 1, dirty: 1
1085685000: system.cpu.dcache: Deferring snoop on in-service MSHR to blk 0x22840 (ns).mshrs: [0x22840:0x2287f](ns) Forward AllocOnFill  state:  InSvc    HasFromCache
      Targets:
        FromCPU: CleanInvalidReq [22860:22860] PoC

1085685001: system.l2cache: sendWriteQueuePacket: write WriteClean [22840:2287f] PoC
1085686000: system.l2cache: sendWriteQueuePacket: write WriteClean [22840:2287f] PoC
1085693000: system.l2cache: recvTimingResp: Handling response CleanInvalidResp [22860:22860] PoC
1085714000: system.cpu.dcache: recvTimingResp: Handling response CleanInvalidResp [22860:22860] PoC
1085726000: system.cpu.dcache: access for ReadReq [54cc8:54ccb] hit state: e (M) writable: 1 readable: 1 dirty: 1 prefetched: 0 | tag: 0xa secure: 0 valid: 1 | set: 0x133 way: 0
1085726000: system.cpu.dcache: access for ReadReq [54cc8:54ccb] hit state: e (M) writable: 1 readable: 1 dirty: 1 prefetched: 0 | tag: 0xa secure: 0 valid: 1 | set: 0x133 way: 0
1085726000: system.cpu.dcache: access for ReadReq [54cc8:54ccb] hit state: e (M) writable: 1 readable: 1 dirty: 1 prefetched: 0 | tag: 0xa secure: 0 valid: 1 | set: 0x133 way: 0
1085726000: system.cpu.dcache: access for ReadReq [54d00:54d07] hit state: e (M) writable: 1 readable: 1 dirty: 1 prefetched: 0 | tag: 0xa secure: 0 valid: 1 | set: 0x134 way: 0
1085745000: system.cpu.dcache: access for WriteReq [54cc8:54ccb] hit state: e (M) writable: 1 readable: 1 dirty: 1 prefetched: 0 | tag: 0xa secure: 0 valid: 1 | set: 0x133 way: 0
1085748000: system.cpu.dcache: access for ReadReq [54cc8:54ccb] hit state: e (M) writable: 1 readable: 1 dirty: 1 prefetched: 0 | tag: 0xa secure: 0 valid: 1 | set: 0x133 way: 0
1085750000: system.cpu.dcache: access for ReadReq [54cc8:54ccb] hit state: e (M) writable: 1 readable: 1 dirty: 1 prefetched: 0 | tag: 0xa secure: 0 valid: 1 | set: 0x133 way: 0
1085760000: system.cpu.dcache: access for WriteReq [54d00:54d07] hit state: e (M) writable: 1 readable: 1 dirty: 1 prefetched: 0 | tag: 0xa secure: 0 valid: 1 | set: 0x134 way: 0
1085763000: system.cpu.dcache: access for CleanInvalidReq [22a60:22a60] PoC miss
1085765000: system.cpu.dcache: sendMSHRQueuePacket: MSHR CleanInvalidReq [22a60:22a60] PoC
1085765000: system.l2cache: access for CleanInvalidReq [22a60:22a60] PoC hit state: e (M) writable: 1 readable: 1 dirty: 1 prefetched: 0 | tag: 0x4 secure: 0 valid: 1 | set: 0xa9 way: 0x1
1085786000: system.l2cache: sendMSHRQueuePacket: MSHR CleanInvalidReq [22a60:22a60] PoC
1085786000: system.l2cache: Create WriteClean [22a40:22a7f] PoC writable: 1, dirty: 1
1085786000: system.cpu.dcache: Deferring snoop on in-service MSHR to blk 0x22a40 (ns).mshrs: [0x22a40:0x22a7f](ns) Forward AllocOnFill  state:  InSvc    HasFromCache
      Targets:
        FromCPU: CleanInvalidReq [22a60:22a60] PoC

1085786001: system.l2cache: sendWriteQueuePacket: write WriteClean [22a40:22a7f] PoC
1085787000: system.l2cache: sendWriteQueuePacket: write WriteClean [22a40:22a7f] PoC
1085794000: system.l2cache: recvTimingResp: Handling response CleanInvalidResp [22a60:22a60] PoC
1085815000: system.cpu.dcache: recvTimingResp: Handling response CleanInvalidResp [22a60:22a60] PoC
1085827000: system.cpu.dcache: access for ReadReq [54cc8:54ccb] hit state: e (M) writable: 1 readable: 1 dirty: 1 prefetched: 0 | tag: 0xa secure: 0 valid: 1 | set: 0x133 way: 0
1085827000: system.cpu.dcache: access for ReadReq [54cc8:54ccb] hit state: e (M) writable: 1 readable: 1 dirty: 1 prefetched: 0 | tag: 0xa secure: 0 valid: 1 | set: 0x133 way: 0
1085827000: system.cpu.dcache: access for ReadReq [54cc8:54ccb] hit state: e (M) writable: 1 readable: 1 dirty: 1 prefetched: 0 | tag: 0xa secure: 0 valid: 1 | set: 0x133 way: 0
1085827000: system.cpu.dcache: access for ReadReq [54d00:54d07] hit state: e (M) writable: 1 readable: 1 dirty: 1 prefetched: 0 | tag: 0xa secure: 0 valid: 1 | set: 0x134 way: 0
1085846000: system.cpu.dcache: access for WriteReq [54cc8:54ccb] hit state: e (M) writable: 1 readable: 1 dirty: 1 prefetched: 0 | tag: 0xa secure: 0 valid: 1 | set: 0x133 way: 0
1085849000: system.cpu.dcache: access for ReadReq [54cc8:54ccb] hit state: e (M) writable: 1 readable: 1 dirty: 1 prefetched: 0 | tag: 0xa secure: 0 valid: 1 | set: 0x133 way: 0
1085851000: system.cpu.dcache: access for ReadReq [54cc8:54ccb] hit state: e (M) writable: 1 readable: 1 dirty: 1 prefetched: 0 | tag: 0xa secure: 0 valid: 1 | set: 0x133 way: 0
1085861000: system.cpu.dcache: access for WriteReq [54d00:54d07] hit state: e (M) writable: 1 readable: 1 dirty: 1 prefetched: 0 | tag: 0xa secure: 0 valid: 1 | set: 0x134 way: 0
1085864000: system.cpu.dcache: access for CleanInvalidReq [22c60:22c60] PoC miss
1085866000: system.cpu.dcache: sendMSHRQueuePacket: MSHR CleanInvalidReq [22c60:22c60] PoC
1085866000: system.l2cache: access for CleanInvalidReq [22c60:22c60] PoC hit state: e (M) writable: 1 readable: 1 dirty: 1 prefetched: 0 | tag: 0x4 secure: 0 valid: 1 | set: 0xb1 way: 0x1
1085887000: system.l2cache: sendMSHRQueuePacket: MSHR CleanInvalidReq [22c60:22c60] PoC
1085887000: system.l2cache: Create WriteClean [22c40:22c7f] PoC writable: 1, dirty: 1
1085887000: system.cpu.dcache: Deferring snoop on in-service MSHR to blk 0x22c40 (ns).mshrs: [0x22c40:0x22c7f](ns) Forward AllocOnFill  state:  InSvc    HasFromCache
      Targets:
        FromCPU: CleanInvalidReq [22c60:22c60] PoC

1085887001: system.l2cache: sendWriteQueuePacket: write WriteClean [22c40:22c7f] PoC
1085888000: system.l2cache: sendWriteQueuePacket: write WriteClean [22c40:22c7f] PoC
1085895000: system.l2cache: recvTimingResp: Handling response CleanInvalidResp [22c60:22c60] PoC
1085916000: system.cpu.dcache: recvTimingResp: Handling response CleanInvalidResp [22c60:22c60] PoC
1085928000: system.cpu.dcache: access for ReadReq [54cc8:54ccb] hit state: e (M) writable: 1 readable: 1 dirty: 1 prefetched: 0 | tag: 0xa secure: 0 valid: 1 | set: 0x133 way: 0
1085928000: system.cpu.dcache: access for ReadReq [54cc8:54ccb] hit state: e (M) writable: 1 readable: 1 dirty: 1 prefetched: 0 | tag: 0xa secure: 0 valid: 1 | set: 0x133 way: 0
1085928000: system.cpu.dcache: access for ReadReq [54cc8:54ccb] hit state: e (M) writable: 1 readable: 1 dirty: 1 prefetched: 0 | tag: 0xa secure: 0 valid: 1 | set: 0x133 way: 0
1085928000: system.cpu.dcache: access for ReadReq [54d00:54d07] hit state: e (M) writable: 1 readable: 1 dirty: 1 prefetched: 0 | tag: 0xa secure: 0 valid: 1 | set: 0x134 way: 0
1085947000: system.cpu.dcache: access for WriteReq [54cc8:54ccb] hit state: e (M) writable: 1 readable: 1 dirty: 1 prefetched: 0 | tag: 0xa secure: 0 valid: 1 | set: 0x133 way: 0
1085950000: system.cpu.dcache: access for ReadReq [54cc8:54ccb] hit state: e (M) writable: 1 readable: 1 dirty: 1 prefetched: 0 | tag: 0xa secure: 0 valid: 1 | set: 0x133 way: 0
1085952000: system.cpu.dcache: access for ReadReq [54cc8:54ccb] hit state: e (M) writable: 1 readable: 1 dirty: 1 prefetched: 0 | tag: 0xa secure: 0 valid: 1 | set: 0x133 way: 0
1085962000: system.cpu.dcache: access for WriteReq [54d00:54d07] hit state: e (M) writable: 1 readable: 1 dirty: 1 prefetched: 0 | tag: 0xa secure: 0 valid: 1 | set: 0x134 way: 0
1085965000: system.cpu.dcache: access for CleanInvalidReq [22e60:22e60] PoC miss
1085967000: system.cpu.dcache: sendMSHRQueuePacket: MSHR CleanInvalidReq [22e60:22e60] PoC
1085967000: system.l2cache: access for CleanInvalidReq [22e60:22e60] PoC hit state: e (M) writable: 1 readable: 1 dirty: 1 prefetched: 0 | tag: 0x4 secure: 0 valid: 1 | set: 0xb9 way: 0x7
1085988000: system.l2cache: sendMSHRQueuePacket: MSHR CleanInvalidReq [22e60:22e60] PoC
1085988000: system.l2cache: Create WriteClean [22e40:22e7f] PoC writable: 1, dirty: 1
1085988000: system.cpu.dcache: Deferring snoop on in-service MSHR to blk 0x22e40 (ns).mshrs: [0x22e40:0x22e7f](ns) Forward AllocOnFill  state:  InSvc    HasFromCache
      Targets:
        FromCPU: CleanInvalidReq [22e60:22e60] PoC

1085988001: system.l2cache: sendWriteQueuePacket: write WriteClean [22e40:22e7f] PoC
1085989000: system.l2cache: sendWriteQueuePacket: write WriteClean [22e40:22e7f] PoC
1085996000: system.l2cache: recvTimingResp: Handling response CleanInvalidResp [22e60:22e60] PoC
1086017000: system.cpu.dcache: recvTimingResp: Handling response CleanInvalidResp [22e60:22e60] PoC
1086029000: system.cpu.dcache: access for ReadReq [54cc8:54ccb] hit state: e (M) writable: 1 readable: 1 dirty: 1 prefetched: 0 | tag: 0xa secure: 0 valid: 1 | set: 0x133 way: 0
1086029000: system.cpu.dcache: access for ReadReq [54cc8:54ccb] hit state: e (M) writable: 1 readable: 1 dirty: 1 prefetched: 0 | tag: 0xa secure: 0 valid: 1 | set: 0x133 way: 0
1086029000: system.cpu.dcache: access for ReadReq [54cc8:54ccb] hit state: e (M) writable: 1 readable: 1 dirty: 1 prefetched: 0 | tag: 0xa secure: 0 valid: 1 | set: 0x133 way: 0
1086029000: system.cpu.dcache: access for ReadReq [54d00:54d07] hit state: e (M) writable: 1 readable: 1 dirty: 1 prefetched: 0 | tag: 0xa secure: 0 valid: 1 | set: 0x134 way: 0
1086048000: system.cpu.dcache: access for WriteReq [54cc8:54ccb] hit state: e (M) writable: 1 readable: 1 dirty: 1 prefetched: 0 | tag: 0xa secure: 0 valid: 1 | set: 0x133 way: 0
1086051000: system.cpu.dcache: access for ReadReq [54cc8:54ccb] hit state: e (M) writable: 1 readable: 1 dirty: 1 prefetched: 0 | tag: 0xa secure: 0 valid: 1 | set: 0x133 way: 0
1086053000: system.cpu.dcache: access for ReadReq [54cc8:54ccb] hit state: e (M) writable: 1 readable: 1 dirty: 1 prefetched: 0 | tag: 0xa secure: 0 valid: 1 | set: 0x133 way: 0
1086063000: system.cpu.dcache: access for WriteReq [54d00:54d07] hit state: e (M) writable: 1 readable: 1 dirty: 1 prefetched: 0 | tag: 0xa secure: 0 valid: 1 | set: 0x134 way: 0
1086066000: system.cpu.dcache: access for CleanInvalidReq [23060:23060] PoC miss
1086068000: system.cpu.dcache: sendMSHRQueuePacket: MSHR CleanInvalidReq [23060:23060] PoC
1086068000: system.l2cache: access for CleanInvalidReq [23060:23060] PoC hit state: e (M) writable: 1 readable: 1 dirty: 1 prefetched: 0 | tag: 0x4 secure: 0 valid: 1 | set: 0xc1 way: 0x2
1086089000: system.l2cache: sendMSHRQueuePacket: MSHR CleanInvalidReq [23060:23060] PoC
1086089000: system.l2cache: Create WriteClean [23040:2307f] PoC writable: 1, dirty: 1
1086089000: system.cpu.dcache: Deferring snoop on in-service MSHR to blk 0x23040 (ns).mshrs: [0x23040:0x2307f](ns) Forward AllocOnFill  state:  InSvc    HasFromCache
      Targets:
        FromCPU: CleanInvalidReq [23060:23060] PoC

1086089001: system.l2cache: sendWriteQueuePacket: write WriteClean [23040:2307f] PoC
1086090000: system.l2cache: sendWriteQueuePacket: write WriteClean [23040:2307f] PoC
1086097000: system.l2cache: recvTimingResp: Handling response CleanInvalidResp [23060:23060] PoC
1086118000: system.cpu.dcache: recvTimingResp: Handling response CleanInvalidResp [23060:23060] PoC
1086130000: system.cpu.dcache: access for ReadReq [54cc8:54ccb] hit state: e (M) writable: 1 readable: 1 dirty: 1 prefetched: 0 | tag: 0xa secure: 0 valid: 1 | set: 0x133 way: 0
1086130000: system.cpu.dcache: access for ReadReq [54cc8:54ccb] hit state: e (M) writable: 1 readable: 1 dirty: 1 prefetched: 0 | tag: 0xa secure: 0 valid: 1 | set: 0x133 way: 0
1086130000: system.cpu.dcache: access for ReadReq [54cc8:54ccb] hit state: e (M) writable: 1 readable: 1 dirty: 1 prefetched: 0 | tag: 0xa secure: 0 valid: 1 | set: 0x133 way: 0
1086130000: system.cpu.dcache: access for ReadReq [54d00:54d07] hit state: e (M) writable: 1 readable: 1 dirty: 1 prefetched: 0 | tag: 0xa secure: 0 valid: 1 | set: 0x134 way: 0
1086149000: system.cpu.dcache: access for WriteReq [54cc8:54ccb] hit state: e (M) writable: 1 readable: 1 dirty: 1 prefetched: 0 | tag: 0xa secure: 0 valid: 1 | set: 0x133 way: 0
1086152000: system.cpu.dcache: access for ReadReq [54cc8:54ccb] hit state: e (M) writable: 1 readable: 1 dirty: 1 prefetched: 0 | tag: 0xa secure: 0 valid: 1 | set: 0x133 way: 0
1086154000: system.cpu.dcache: access for ReadReq [54cc8:54ccb] hit state: e (M) writable: 1 readable: 1 dirty: 1 prefetched: 0 | tag: 0xa secure: 0 valid: 1 | set: 0x133 way: 0
1086164000: system.cpu.dcache: access for WriteReq [54d00:54d07] hit state: e (M) writable: 1 readable: 1 dirty: 1 prefetched: 0 | tag: 0xa secure: 0 valid: 1 | set: 0x134 way: 0
1086167000: system.cpu.dcache: access for CleanInvalidReq [23260:23260] PoC miss
1086169000: system.cpu.dcache: sendMSHRQueuePacket: MSHR CleanInvalidReq [23260:23260] PoC
1086169000: system.l2cache: access for CleanInvalidReq [23260:23260] PoC hit state: e (M) writable: 1 readable: 1 dirty: 1 prefetched: 0 | tag: 0x4 secure: 0 valid: 1 | set: 0xc9 way: 0x7
1086190000: system.l2cache: sendMSHRQueuePacket: MSHR CleanInvalidReq [23260:23260] PoC
1086190000: system.l2cache: Create WriteClean [23240:2327f] PoC writable: 1, dirty: 1
1086190000: system.cpu.dcache: Deferring snoop on in-service MSHR to blk 0x23240 (ns).mshrs: [0x23240:0x2327f](ns) Forward AllocOnFill  state:  InSvc    HasFromCache
      Targets:
        FromCPU: CleanInvalidReq [23260:23260] PoC

1086190001: system.l2cache: sendWriteQueuePacket: write WriteClean [23240:2327f] PoC
1086191000: system.l2cache: sendWriteQueuePacket: write WriteClean [23240:2327f] PoC
1086198000: system.l2cache: recvTimingResp: Handling response CleanInvalidResp [23260:23260] PoC
1086219000: system.cpu.dcache: recvTimingResp: Handling response CleanInvalidResp [23260:23260] PoC
1086231000: system.cpu.dcache: access for ReadReq [54cc8:54ccb] hit state: e (M) writable: 1 readable: 1 dirty: 1 prefetched: 0 | tag: 0xa secure: 0 valid: 1 | set: 0x133 way: 0
1086231000: system.cpu.dcache: access for ReadReq [54cc8:54ccb] hit state: e (M) writable: 1 readable: 1 dirty: 1 prefetched: 0 | tag: 0xa secure: 0 valid: 1 | set: 0x133 way: 0
1086231000: system.cpu.dcache: access for ReadReq [54cc8:54ccb] hit state: e (M) writable: 1 readable: 1 dirty: 1 prefetched: 0 | tag: 0xa secure: 0 valid: 1 | set: 0x133 way: 0
1086231000: system.cpu.dcache: access for ReadReq [54d00:54d07] hit state: e (M) writable: 1 readable: 1 dirty: 1 prefetched: 0 | tag: 0xa secure: 0 valid: 1 | set: 0x134 way: 0
1086250000: system.cpu.dcache: access for WriteReq [54cc8:54ccb] hit state: e (M) writable: 1 readable: 1 dirty: 1 prefetched: 0 | tag: 0xa secure: 0 valid: 1 | set: 0x133 way: 0
1086253000: system.cpu.dcache: access for ReadReq [54cc8:54ccb] hit state: e (M) writable: 1 readable: 1 dirty: 1 prefetched: 0 | tag: 0xa secure: 0 valid: 1 | set: 0x133 way: 0
1086255000: system.cpu.dcache: access for ReadReq [54cc8:54ccb] hit state: e (M) writable: 1 readable: 1 dirty: 1 prefetched: 0 | tag: 0xa secure: 0 valid: 1 | set: 0x133 way: 0
1086265000: system.cpu.dcache: access for WriteReq [54d00:54d07] hit state: e (M) writable: 1 readable: 1 dirty: 1 prefetched: 0 | tag: 0xa secure: 0 valid: 1 | set: 0x134 way: 0
1086268000: system.cpu.dcache: access for CleanInvalidReq [23460:23460] PoC miss
1086270000: system.cpu.dcache: sendMSHRQueuePacket: MSHR CleanInvalidReq [23460:23460] PoC
1086270000: system.l2cache: access for CleanInvalidReq [23460:23460] PoC hit state: e (M) writable: 1 readable: 1 dirty: 1 prefetched: 0 | tag: 0x4 secure: 0 valid: 1 | set: 0xd1 way: 0x5
1086291000: system.l2cache: sendMSHRQueuePacket: MSHR CleanInvalidReq [23460:23460] PoC
1086291000: system.l2cache: Create WriteClean [23440:2347f] PoC writable: 1, dirty: 1
1086291000: system.cpu.dcache: Deferring snoop on in-service MSHR to blk 0x23440 (ns).mshrs: [0x23440:0x2347f](ns) Forward AllocOnFill  state:  InSvc    HasFromCache
      Targets:
        FromCPU: CleanInvalidReq [23460:23460] PoC

1086291001: system.l2cache: sendWriteQueuePacket: write WriteClean [23440:2347f] PoC
1086292000: system.l2cache: sendWriteQueuePacket: write WriteClean [23440:2347f] PoC
1086299000: system.l2cache: recvTimingResp: Handling response CleanInvalidResp [23460:23460] PoC
1086320000: system.cpu.dcache: recvTimingResp: Handling response CleanInvalidResp [23460:23460] PoC
1086332000: system.cpu.dcache: access for ReadReq [54cc8:54ccb] hit state: e (M) writable: 1 readable: 1 dirty: 1 prefetched: 0 | tag: 0xa secure: 0 valid: 1 | set: 0x133 way: 0
1086332000: system.cpu.dcache: access for ReadReq [54cc8:54ccb] hit state: e (M) writable: 1 readable: 1 dirty: 1 prefetched: 0 | tag: 0xa secure: 0 valid: 1 | set: 0x133 way: 0
1086332000: system.cpu.dcache: access for ReadReq [54cc8:54ccb] hit state: e (M) writable: 1 readable: 1 dirty: 1 prefetched: 0 | tag: 0xa secure: 0 valid: 1 | set: 0x133 way: 0
1086332000: system.cpu.dcache: access for ReadReq [54d00:54d07] hit state: e (M) writable: 1 readable: 1 dirty: 1 prefetched: 0 | tag: 0xa secure: 0 valid: 1 | set: 0x134 way: 0
1086351000: system.cpu.dcache: access for WriteReq [54cc8:54ccb] hit state: e (M) writable: 1 readable: 1 dirty: 1 prefetched: 0 | tag: 0xa secure: 0 valid: 1 | set: 0x133 way: 0
1086354000: system.cpu.dcache: access for ReadReq [54cc8:54ccb] hit state: e (M) writable: 1 readable: 1 dirty: 1 prefetched: 0 | tag: 0xa secure: 0 valid: 1 | set: 0x133 way: 0
1086356000: system.cpu.dcache: access for ReadReq [54cc8:54ccb] hit state: e (M) writable: 1 readable: 1 dirty: 1 prefetched: 0 | tag: 0xa secure: 0 valid: 1 | set: 0x133 way: 0
1086366000: system.cpu.dcache: access for WriteReq [54d00:54d07] hit state: e (M) writable: 1 readable: 1 dirty: 1 prefetched: 0 | tag: 0xa secure: 0 valid: 1 | set: 0x134 way: 0
1086369000: system.cpu.dcache: access for CleanInvalidReq [23660:23660] PoC hit state: e (M) writable: 1 readable: 1 dirty: 1 prefetched: 0 | tag: 0x4 secure: 0 valid: 1 | set: 0xd9 way: 0
1086371000: system.cpu.dcache: sendMSHRQueuePacket: MSHR CleanInvalidReq [23660:23660] PoC
1086371000: system.l2cache: access for CleanInvalidReq [23660:23660] PoC hit state: 6 (E) writable: 1 readable: 1 dirty: 0 prefetched: 0 | tag: 0x4 secure: 0 valid: 1 | set: 0xd9 way: 0
1086371000: system.cpu.dcache: Create WriteClean [23640:2367f] PoC writable: 1, dirty: 1
1086371001: system.cpu.dcache: sendWriteQueuePacket: write WriteClean [23640:2367f] PoC
1086372000: system.cpu.dcache: sendWriteQueuePacket: write WriteClean [23640:2367f] PoC
1086372000: system.l2cache: access for WriteClean [23640:2367f] PoC hit state: 2 (E) writable: 1 readable: 0 dirty: 0 prefetched: 0 | tag: 0x4 secure: 0 valid: 1 | set: 0xd9 way: 0
1086372000: system.l2cache: access new state is state: 2 (E) writable: 1 readable: 0 dirty: 0 prefetched: 0 | tag: 0x4 secure: 0 valid: 1 | set: 0xd9 way: 0
1086392000: system.l2cache: sendWriteQueuePacket: write WriteClean [23640:2367f] PoC
1086392001: system.l2cache: sendMSHRQueuePacket: MSHR CleanInvalidReq [23660:23660] PoC
1086397000: system.l2cache: sendMSHRQueuePacket: MSHR CleanInvalidReq [23660:23660] PoC
1086405000: system.l2cache: recvTimingResp: Handling response CleanInvalidResp [23660:23660] PoC
1086426000: system.cpu.dcache: recvTimingResp: Handling response CleanInvalidResp [23660:23660] PoC
1086438000: system.cpu.dcache: access for ReadReq [54cc8:54ccb] hit state: e (M) writable: 1 readable: 1 dirty: 1 prefetched: 0 | tag: 0xa secure: 0 valid: 1 | set: 0x133 way: 0
1086438000: system.cpu.dcache: access for ReadReq [54cc8:54ccb] hit state: e (M) writable: 1 readable: 1 dirty: 1 prefetched: 0 | tag: 0xa secure: 0 valid: 1 | set: 0x133 way: 0
1086438000: system.cpu.dcache: access for ReadReq [54cc8:54ccb] hit state: e (M) writable: 1 readable: 1 dirty: 1 prefetched: 0 | tag: 0xa secure: 0 valid: 1 | set: 0x133 way: 0
1086438000: system.cpu.dcache: access for ReadReq [54d00:54d07] hit state: e (M) writable: 1 readable: 1 dirty: 1 prefetched: 0 | tag: 0xa secure: 0 valid: 1 | set: 0x134 way: 0
1086457000: system.cpu.dcache: access for WriteReq [54cc8:54ccb] hit state: e (M) writable: 1 readable: 1 dirty: 1 prefetched: 0 | tag: 0xa secure: 0 valid: 1 | set: 0x133 way: 0
1086460000: system.cpu.dcache: access for ReadReq [54cc8:54ccb] hit state: e (M) writable: 1 readable: 1 dirty: 1 prefetched: 0 | tag: 0xa secure: 0 valid: 1 | set: 0x133 way: 0
1086462000: system.cpu.dcache: access for ReadReq [54cc8:54ccb] hit state: e (M) writable: 1 readable: 1 dirty: 1 prefetched: 0 | tag: 0xa secure: 0 valid: 1 | set: 0x133 way: 0
1086472000: system.cpu.dcache: access for WriteReq [54d00:54d07] hit state: e (M) writable: 1 readable: 1 dirty: 1 prefetched: 0 | tag: 0xa secure: 0 valid: 1 | set: 0x134 way: 0
1086475000: system.cpu.dcache: access for CleanInvalidReq [23860:23860] PoC hit state: e (M) writable: 1 readable: 1 dirty: 1 prefetched: 0 | tag: 0x4 secure: 0 valid: 1 | set: 0xe1 way: 0
1086477000: system.cpu.dcache: sendMSHRQueuePacket: MSHR CleanInvalidReq [23860:23860] PoC
1086477000: system.l2cache: access for CleanInvalidReq [23860:23860] PoC hit state: 6 (E) writable: 1 readable: 1 dirty: 0 prefetched: 0 | tag: 0x4 secure: 0 valid: 1 | set: 0xe1 way: 0x1
1086477000: system.cpu.dcache: Create WriteClean [23840:2387f] PoC writable: 1, dirty: 1
1086477001: system.cpu.dcache: sendWriteQueuePacket: write WriteClean [23840:2387f] PoC
1086478000: system.cpu.dcache: sendWriteQueuePacket: write WriteClean [23840:2387f] PoC
1086478000: system.l2cache: access for WriteClean [23840:2387f] PoC hit state: 2 (E) writable: 1 readable: 0 dirty: 0 prefetched: 0 | tag: 0x4 secure: 0 valid: 1 | set: 0xe1 way: 0x1
1086478000: system.l2cache: access new state is state: 2 (E) writable: 1 readable: 0 dirty: 0 prefetched: 0 | tag: 0x4 secure: 0 valid: 1 | set: 0xe1 way: 0x1
1086498000: system.l2cache: sendWriteQueuePacket: write WriteClean [23840:2387f] PoC
1086498001: system.l2cache: sendMSHRQueuePacket: MSHR CleanInvalidReq [23860:23860] PoC
1086503000: system.l2cache: sendMSHRQueuePacket: MSHR CleanInvalidReq [23860:23860] PoC
1086511000: system.l2cache: recvTimingResp: Handling response CleanInvalidResp [23860:23860] PoC
1086532000: system.cpu.dcache: recvTimingResp: Handling response CleanInvalidResp [23860:23860] PoC
1086544000: system.cpu.dcache: access for ReadReq [54cc8:54ccb] hit state: e (M) writable: 1 readable: 1 dirty: 1 prefetched: 0 | tag: 0xa secure: 0 valid: 1 | set: 0x133 way: 0
1086544000: system.cpu.dcache: access for ReadReq [54cc8:54ccb] hit state: e (M) writable: 1 readable: 1 dirty: 1 prefetched: 0 | tag: 0xa secure: 0 valid: 1 | set: 0x133 way: 0
1086544000: system.cpu.dcache: access for ReadReq [54cc8:54ccb] hit state: e (M) writable: 1 readable: 1 dirty: 1 prefetched: 0 | tag: 0xa secure: 0 valid: 1 | set: 0x133 way: 0
1086544000: system.cpu.dcache: access for ReadReq [54d00:54d07] hit state: e (M) writable: 1 readable: 1 dirty: 1 prefetched: 0 | tag: 0xa secure: 0 valid: 1 | set: 0x134 way: 0
1086563000: system.cpu.dcache: access for WriteReq [54cc8:54ccb] hit state: e (M) writable: 1 readable: 1 dirty: 1 prefetched: 0 | tag: 0xa secure: 0 valid: 1 | set: 0x133 way: 0
1086566000: system.cpu.dcache: access for ReadReq [54cc8:54ccb] hit state: e (M) writable: 1 readable: 1 dirty: 1 prefetched: 0 | tag: 0xa secure: 0 valid: 1 | set: 0x133 way: 0
1086568000: system.cpu.dcache: access for ReadReq [54cc8:54ccb] hit state: e (M) writable: 1 readable: 1 dirty: 1 prefetched: 0 | tag: 0xa secure: 0 valid: 1 | set: 0x133 way: 0
1086578000: system.cpu.dcache: access for WriteReq [54d00:54d07] hit state: e (M) writable: 1 readable: 1 dirty: 1 prefetched: 0 | tag: 0xa secure: 0 valid: 1 | set: 0x134 way: 0
1086581000: system.cpu.dcache: access for CleanInvalidReq [23a60:23a60] PoC hit state: e (M) writable: 1 readable: 1 dirty: 1 prefetched: 0 | tag: 0x4 secure: 0 valid: 1 | set: 0xe9 way: 0
1086583000: system.cpu.dcache: sendMSHRQueuePacket: MSHR CleanInvalidReq [23a60:23a60] PoC
1086583000: system.l2cache: access for CleanInvalidReq [23a60:23a60] PoC hit state: 6 (E) writable: 1 readable: 1 dirty: 0 prefetched: 0 | tag: 0x4 secure: 0 valid: 1 | set: 0xe9 way: 0x2
1086583000: system.cpu.dcache: Create WriteClean [23a40:23a7f] PoC writable: 1, dirty: 1
1086583001: system.cpu.dcache: sendWriteQueuePacket: write WriteClean [23a40:23a7f] PoC
1086584000: system.cpu.dcache: sendWriteQueuePacket: write WriteClean [23a40:23a7f] PoC
1086584000: system.l2cache: access for WriteClean [23a40:23a7f] PoC hit state: 2 (E) writable: 1 readable: 0 dirty: 0 prefetched: 0 | tag: 0x4 secure: 0 valid: 1 | set: 0xe9 way: 0x2
1086584000: system.l2cache: access new state is state: 2 (E) writable: 1 readable: 0 dirty: 0 prefetched: 0 | tag: 0x4 secure: 0 valid: 1 | set: 0xe9 way: 0x2
1086604000: system.l2cache: sendWriteQueuePacket: write WriteClean [23a40:23a7f] PoC
1086604001: system.l2cache: sendMSHRQueuePacket: MSHR CleanInvalidReq [23a60:23a60] PoC
1086609000: system.l2cache: sendMSHRQueuePacket: MSHR CleanInvalidReq [23a60:23a60] PoC
1086617000: system.l2cache: recvTimingResp: Handling response CleanInvalidResp [23a60:23a60] PoC
1086638000: system.cpu.dcache: recvTimingResp: Handling response CleanInvalidResp [23a60:23a60] PoC
1086650000: system.cpu.dcache: access for ReadReq [54cc8:54ccb] hit state: e (M) writable: 1 readable: 1 dirty: 1 prefetched: 0 | tag: 0xa secure: 0 valid: 1 | set: 0x133 way: 0
1086650000: system.cpu.dcache: access for ReadReq [54cc8:54ccb] hit state: e (M) writable: 1 readable: 1 dirty: 1 prefetched: 0 | tag: 0xa secure: 0 valid: 1 | set: 0x133 way: 0
1086650000: system.cpu.dcache: access for ReadReq [54cc8:54ccb] hit state: e (M) writable: 1 readable: 1 dirty: 1 prefetched: 0 | tag: 0xa secure: 0 valid: 1 | set: 0x133 way: 0
1086650000: system.cpu.dcache: access for ReadReq [54d00:54d07] hit state: e (M) writable: 1 readable: 1 dirty: 1 prefetched: 0 | tag: 0xa secure: 0 valid: 1 | set: 0x134 way: 0
1086669000: system.cpu.dcache: access for WriteReq [54cc8:54ccb] hit state: e (M) writable: 1 readable: 1 dirty: 1 prefetched: 0 | tag: 0xa secure: 0 valid: 1 | set: 0x133 way: 0
1086672000: system.cpu.dcache: access for ReadReq [54cc8:54ccb] hit state: e (M) writable: 1 readable: 1 dirty: 1 prefetched: 0 | tag: 0xa secure: 0 valid: 1 | set: 0x133 way: 0
1086674000: system.cpu.dcache: access for ReadReq [54cc8:54ccb] hit state: e (M) writable: 1 readable: 1 dirty: 1 prefetched: 0 | tag: 0xa secure: 0 valid: 1 | set: 0x133 way: 0
1086684000: system.cpu.dcache: access for WriteReq [54d00:54d07] hit state: e (M) writable: 1 readable: 1 dirty: 1 prefetched: 0 | tag: 0xa secure: 0 valid: 1 | set: 0x134 way: 0
1086687000: system.cpu.dcache: access for CleanInvalidReq [23c60:23c60] PoC hit state: e (M) writable: 1 readable: 1 dirty: 1 prefetched: 0 | tag: 0x4 secure: 0 valid: 1 | set: 0xf1 way: 0x1
1086689000: system.cpu.dcache: sendMSHRQueuePacket: MSHR CleanInvalidReq [23c60:23c60] PoC
1086689000: system.l2cache: access for CleanInvalidReq [23c60:23c60] PoC hit state: 6 (E) writable: 1 readable: 1 dirty: 0 prefetched: 0 | tag: 0x4 secure: 0 valid: 1 | set: 0xf1 way: 0x2
1086689000: system.cpu.dcache: Create WriteClean [23c40:23c7f] PoC writable: 1, dirty: 1
1086689001: system.cpu.dcache: sendWriteQueuePacket: write WriteClean [23c40:23c7f] PoC
1086690000: system.cpu.dcache: sendWriteQueuePacket: write WriteClean [23c40:23c7f] PoC
1086690000: system.l2cache: access for WriteClean [23c40:23c7f] PoC hit state: 2 (E) writable: 1 readable: 0 dirty: 0 prefetched: 0 | tag: 0x4 secure: 0 valid: 1 | set: 0xf1 way: 0x2
1086690000: system.l2cache: access new state is state: 2 (E) writable: 1 readable: 0 dirty: 0 prefetched: 0 | tag: 0x4 secure: 0 valid: 1 | set: 0xf1 way: 0x2
1086710000: system.l2cache: sendWriteQueuePacket: write WriteClean [23c40:23c7f] PoC
1086710001: system.l2cache: sendMSHRQueuePacket: MSHR CleanInvalidReq [23c60:23c60] PoC
1086715000: system.l2cache: sendMSHRQueuePacket: MSHR CleanInvalidReq [23c60:23c60] PoC
1086723000: system.l2cache: recvTimingResp: Handling response CleanInvalidResp [23c60:23c60] PoC
1086744000: system.cpu.dcache: recvTimingResp: Handling response CleanInvalidResp [23c60:23c60] PoC
1086756000: system.cpu.dcache: access for ReadReq [54cc8:54ccb] hit state: e (M) writable: 1 readable: 1 dirty: 1 prefetched: 0 | tag: 0xa secure: 0 valid: 1 | set: 0x133 way: 0
1086756000: system.cpu.dcache: access for ReadReq [54cc8:54ccb] hit state: e (M) writable: 1 readable: 1 dirty: 1 prefetched: 0 | tag: 0xa secure: 0 valid: 1 | set: 0x133 way: 0
1086756000: system.cpu.dcache: access for ReadReq [54cc8:54ccb] hit state: e (M) writable: 1 readable: 1 dirty: 1 prefetched: 0 | tag: 0xa secure: 0 valid: 1 | set: 0x133 way: 0
1086756000: system.cpu.dcache: access for ReadReq [54d00:54d07] hit state: e (M) writable: 1 readable: 1 dirty: 1 prefetched: 0 | tag: 0xa secure: 0 valid: 1 | set: 0x134 way: 0
1086775000: system.cpu.dcache: access for WriteReq [54cc8:54ccb] hit state: e (M) writable: 1 readable: 1 dirty: 1 prefetched: 0 | tag: 0xa secure: 0 valid: 1 | set: 0x133 way: 0
1086778000: system.cpu.dcache: access for ReadReq [54cc8:54ccb] hit state: e (M) writable: 1 readable: 1 dirty: 1 prefetched: 0 | tag: 0xa secure: 0 valid: 1 | set: 0x133 way: 0
1086780000: system.cpu.dcache: access for ReadReq [54cc8:54ccb] hit state: e (M) writable: 1 readable: 1 dirty: 1 prefetched: 0 | tag: 0xa secure: 0 valid: 1 | set: 0x133 way: 0
1086790000: system.cpu.dcache: access for WriteReq [54d00:54d07] hit state: e (M) writable: 1 readable: 1 dirty: 1 prefetched: 0 | tag: 0xa secure: 0 valid: 1 | set: 0x134 way: 0
1086793000: system.cpu.dcache: access for CleanInvalidReq [23e60:23e60] PoC miss
1086795000: system.cpu.dcache: sendMSHRQueuePacket: MSHR CleanInvalidReq [23e60:23e60] PoC
1086795000: system.l2cache: access for CleanInvalidReq [23e60:23e60] PoC hit state: e (M) writable: 1 readable: 1 dirty: 1 prefetched: 0 | tag: 0x4 secure: 0 valid: 1 | set: 0xf9 way: 0x4
1086816000: system.l2cache: sendMSHRQueuePacket: MSHR CleanInvalidReq [23e60:23e60] PoC
1086816000: system.l2cache: Create WriteClean [23e40:23e7f] PoC writable: 1, dirty: 1
1086816000: system.cpu.dcache: Deferring snoop on in-service MSHR to blk 0x23e40 (ns).mshrs: [0x23e40:0x23e7f](ns) Forward AllocOnFill  state:  InSvc    HasFromCache
      Targets:
        FromCPU: CleanInvalidReq [23e60:23e60] PoC

1086816001: system.l2cache: sendWriteQueuePacket: write WriteClean [23e40:23e7f] PoC
1086817000: system.l2cache: sendWriteQueuePacket: write WriteClean [23e40:23e7f] PoC
1086824000: system.l2cache: recvTimingResp: Handling response CleanInvalidResp [23e60:23e60] PoC
1086845000: system.cpu.dcache: recvTimingResp: Handling response CleanInvalidResp [23e60:23e60] PoC
1086857000: system.cpu.dcache: access for ReadReq [54cc8:54ccb] hit state: e (M) writable: 1 readable: 1 dirty: 1 prefetched: 0 | tag: 0xa secure: 0 valid: 1 | set: 0x133 way: 0
1086857000: system.cpu.dcache: access for ReadReq [54cc8:54ccb] hit state: e (M) writable: 1 readable: 1 dirty: 1 prefetched: 0 | tag: 0xa secure: 0 valid: 1 | set: 0x133 way: 0
1086857000: system.cpu.dcache: access for ReadReq [54cc8:54ccb] hit state: e (M) writable: 1 readable: 1 dirty: 1 prefetched: 0 | tag: 0xa secure: 0 valid: 1 | set: 0x133 way: 0
1086857000: system.cpu.dcache: access for ReadReq [54d00:54d07] hit state: e (M) writable: 1 readable: 1 dirty: 1 prefetched: 0 | tag: 0xa secure: 0 valid: 1 | set: 0x134 way: 0
1086876000: system.cpu.dcache: access for WriteReq [54cc8:54ccb] hit state: e (M) writable: 1 readable: 1 dirty: 1 prefetched: 0 | tag: 0xa secure: 0 valid: 1 | set: 0x133 way: 0
1086879000: system.cpu.dcache: access for ReadReq [54cc8:54ccb] hit state: e (M) writable: 1 readable: 1 dirty: 1 prefetched: 0 | tag: 0xa secure: 0 valid: 1 | set: 0x133 way: 0
1086881000: system.cpu.dcache: access for ReadReq [54cc8:54ccb] hit state: e (M) writable: 1 readable: 1 dirty: 1 prefetched: 0 | tag: 0xa secure: 0 valid: 1 | set: 0x133 way: 0
1086886000: system.cpu.icache: access for ReadReq [1280:12bf] IF hit state: 6 (E) writable: 1 readable: 1 dirty: 0 prefetched: 0 | tag: 0 secure: 0 valid: 1 | set: 0x4a way: 0
1086890000: system.cpu.icache: access for ReadReq [1340:137f] IF hit state: 6 (E) writable: 1 readable: 1 dirty: 0 prefetched: 0 | tag: 0 secure: 0 valid: 1 | set: 0x4d way: 0
1086893000: system.cpu.icache: access for ReadReq [1380:13bf] IF miss
1086894000: system.cpu.dcache: access for ReadReq [4010:4013] hit state: e (M) writable: 1 readable: 1 dirty: 1 prefetched: 0 | tag: 0 secure: 0 valid: 1 | set: 0x100 way: 0x1
1086895000: system.cpu.icache: sendMSHRQueuePacket: MSHR ReadReq [1380:13bf] IF
1086895000: system.cpu.icache: createMissPacket: created ReadSharedReq [1380:13bf] IF from ReadReq [1380:13bf] IF
1086895000: system.l2cache: access for ReadSharedReq [1380:13bf] IF miss
1086898000: system.cpu.icache: access for ReadReq [1140:117f] IF hit state: 6 (E) writable: 1 readable: 1 dirty: 0 prefetched: 0 | tag: 0 secure: 0 valid: 1 | set: 0x45 way: 0x1
1086900000: system.cpu.dcache: access for ReadReq [4030:4037] hit state: e (M) writable: 1 readable: 1 dirty: 1 prefetched: 0 | tag: 0 secure: 0 valid: 1 | set: 0x100 way: 0x1
1086901000: system.cpu.icache: access for ReadReq [1180:11bf] IF hit state: 6 (E) writable: 1 readable: 1 dirty: 0 prefetched: 0 | tag: 0 secure: 0 valid: 1 | set: 0x46 way: 0x1
1086904000: system.cpu.icache: access for ReadReq [1340:137f] IF hit state: 6 (E) writable: 1 readable: 1 dirty: 0 prefetched: 0 | tag: 0 secure: 0 valid: 1 | set: 0x4d way: 0
1086907000: system.cpu.icache: access for ReadReq [1280:12bf] IF hit state: 6 (E) writable: 1 readable: 1 dirty: 0 prefetched: 0 | tag: 0 secure: 0 valid: 1 | set: 0x4a way: 0
1086910000: system.cpu.icache: access for ReadReq [12c0:12ff] IF miss
1086911000: system.cpu.dcache: access for WriteReq [54ce8:54cef] hit state: e (M) writable: 1 readable: 1 dirty: 1 prefetched: 0 | tag: 0xa secure: 0 valid: 1 | set: 0x133 way: 0
1086912000: system.cpu.icache: sendMSHRQueuePacket: MSHR ReadReq [12c0:12ff] IF
1086912000: system.cpu.icache: createMissPacket: created ReadSharedReq [12c0:12ff] IF from ReadReq [12c0:12ff] IF
1086912000: system.l2cache: access for ReadSharedReq [12c0:12ff] IF miss
1086913000: system.cpu.dcache: access for WriteReq [54ccc:54ccf] hit state: e (M) writable: 1 readable: 1 dirty: 1 prefetched: 0 | tag: 0xa secure: 0 valid: 1 | set: 0x133 way: 0
1086914000: system.cpu.icache: access for ReadReq [12c0:12ff] IF miss
1086914000: system.cpu.icache: handleTimingReqMiss coalescing MSHR for ReadReq [12c0:12ff] IF
1086914000: system.cpu.dcache: access for ReadReq [54d08:54d0f] hit state: e (M) writable: 1 readable: 1 dirty: 1 prefetched: 0 | tag: 0xa secure: 0 valid: 1 | set: 0x134 way: 0
1086916000: system.l2cache: sendMSHRQueuePacket: MSHR ReadSharedReq [1380:13bf] IF
1086916000: system.l2cache: createMissPacket: created ReadSharedReq [1380:13bf] IF from ReadSharedReq [1380:13bf] IF
1086919000: system.cpu.icache: access for ReadReq [1280:12bf] IF hit state: 6 (E) writable: 1 readable: 1 dirty: 0 prefetched: 0 | tag: 0 secure: 0 valid: 1 | set: 0x4a way: 0
1086921000: system.cpu.dcache: access for WriteReq [54d08:54d0f] hit state: e (M) writable: 1 readable: 1 dirty: 1 prefetched: 0 | tag: 0xa secure: 0 valid: 1 | set: 0x134 way: 0
1086922000: system.cpu.icache: access for ReadReq [12c0:12ff] IF miss
1086922000: system.cpu.icache: handleTimingReqMiss coalescing MSHR for ReadReq [12c0:12ff] IF
1086926000: system.cpu.dcache: access for ReadReq [54d08:54d0f] hit state: e (M) writable: 1 readable: 1 dirty: 1 prefetched: 0 | tag: 0xa secure: 0 valid: 1 | set: 0x134 way: 0
1086933000: system.l2cache: sendMSHRQueuePacket: MSHR ReadSharedReq [12c0:12ff] IF
1086933000: system.l2cache: createMissPacket: created ReadSharedReq [12c0:12ff] IF from ReadSharedReq [12c0:12ff] IF
1086933000: system.cpu.dcache: access for CleanInvalidReq [4010:4010] PoC hit state: e (M) writable: 1 readable: 1 dirty: 1 prefetched: 0 | tag: 0 secure: 0 valid: 1 | set: 0x100 way: 0x1
1086935000: system.cpu.dcache: sendMSHRQueuePacket: MSHR CleanInvalidReq [4010:4010] PoC
1086935000: system.l2cache: access for CleanInvalidReq [4010:4010] PoC hit state: 6 (E) writable: 1 readable: 1 dirty: 0 prefetched: 0 | tag: 0 secure: 0 valid: 1 | set: 0x100 way: 0x7
1086935000: system.cpu.dcache: Create WriteClean [4000:403f] PoC writable: 1, dirty: 1
1086935001: system.cpu.dcache: sendWriteQueuePacket: write WriteClean [4000:403f] PoC
1086936000: system.cpu.dcache: sendWriteQueuePacket: write WriteClean [4000:403f] PoC
1086936000: system.l2cache: access for WriteClean [4000:403f] PoC hit state: 2 (E) writable: 1 readable: 0 dirty: 0 prefetched: 0 | tag: 0 secure: 0 valid: 1 | set: 0x100 way: 0x7
1086936000: system.l2cache: access new state is state: 2 (E) writable: 1 readable: 0 dirty: 0 prefetched: 0 | tag: 0 secure: 0 valid: 1 | set: 0x100 way: 0x7
1086956000: system.l2cache: sendWriteQueuePacket: write WriteClean [4000:403f] PoC
1086956001: system.l2cache: sendMSHRQueuePacket: MSHR CleanInvalidReq [4010:4010] PoC
1086961000: system.l2cache: sendMSHRQueuePacket: MSHR CleanInvalidReq [4010:4010] PoC
1086969000: system.l2cache: recvTimingResp: Handling response CleanInvalidResp [4010:4010] PoC
1086990000: system.cpu.dcache: recvTimingResp: Handling response CleanInvalidResp [4010:4010] PoC
1086993000: system.l2cache: recvTimingResp: Handling response ReadResp [1380:13bf] IF
1086993000: system.l2cache: Block for addr 0x1380 being updated in Cache
1086993000: system.l2cache: Create Writeback WritebackDirty [9380:93bf] writable: 1, dirty: 1
1086993000: system.l2cache: Block addr 0x1380 (ns) moving from  to state: 6 (E) writable: 1 readable: 1 dirty: 0 prefetched: 0 | tag: 0 secure: 0 valid: 1 | set: 0x4e way: 0x4
1086998000: system.l2cache: recvTimingResp: Handling response ReadResp [12c0:12ff] IF
1086998000: system.l2cache: Block for addr 0x12c0 being updated in Cache
1086998000: system.l2cache: Create Writeback WritebackDirty [112c0:112ff] writable: 1, dirty: 1
1086998000: system.l2cache: Block addr 0x12c0 (ns) moving from  to state: 6 (E) writable: 1 readable: 1 dirty: 0 prefetched: 0 | tag: 0 secure: 0 valid: 1 | set: 0x4b way: 0x3
1087006000: system.cpu.dcache: access for WriteReq [54cc0:54cc3] hit state: e (M) writable: 1 readable: 1 dirty: 1 prefetched: 0 | tag: 0xa secure: 0 valid: 1 | set: 0x133 way: 0
1087013000: system.l2cache: sendWriteQueuePacket: write WritebackDirty [9380:93bf]
1087014000: system.cpu.icache: recvTimingResp: Handling response ReadResp [1380:13bf] IF
1087014000: system.cpu.icache: Block for addr 0x1380 being updated in Cache
1087014000: system.cpu.icache: Create CleanEvict CleanEvict [33380:333bf]
1087014000: system.cpu.icache: Block addr 0x1380 (ns) moving from  to state: 6 (E) writable: 1 readable: 1 dirty: 0 prefetched: 0 | tag: 0 secure: 0 valid: 1 | set: 0x4e way: 0
1087016000: system.cpu.icache: sendWriteQueuePacket: write CleanEvict [33380:333bf]
1087016000: system.l2cache: access for CleanEvict [33380:333bf] miss
1087018000: system.l2cache: sendWriteQueuePacket: write WritebackDirty [112c0:112ff]
1087018000: system.l2cache: sendWriteQueuePacket: write WritebackDirty [112c0:112ff]
1087019000: system.cpu.icache: recvTimingResp: Handling response ReadResp [12c0:12ff] IF
1087019000: system.cpu.icache: Block for addr 0x12c0 being updated in Cache
1087019000: system.cpu.icache: Create CleanEvict CleanEvict [a92c0:a92ff]
1087019000: system.cpu.icache: Block addr 0x12c0 (ns) moving from  to state: 6 (E) writable: 1 readable: 1 dirty: 0 prefetched: 0 | tag: 0 secure: 0 valid: 1 | set: 0x4b way: 0x1
1087021000: system.cpu.icache: sendWriteQueuePacket: write CleanEvict [a92c0:a92ff]
1087021000: system.l2cache: access for CleanEvict [a92c0:a92ff] hit state: 6 (E) writable: 1 readable: 1 dirty: 0 prefetched: 0 | tag: 0x15 secure: 0 valid: 1 | set: 0x4b way: 0x2
1087021000: system.l2cache: handleTimingReqHit satisfied CleanEvict [a92c0:a92ff], no response needed
1087025000: system.cpu.icache: access for ReadReq [1300:133f] IF miss
1087027000: system.cpu.icache: sendMSHRQueuePacket: MSHR ReadReq [1300:133f] IF
1087027000: system.cpu.icache: createMissPacket: created ReadSharedReq [1300:133f] IF from ReadReq [1300:133f] IF
1087027000: system.l2cache: access for ReadSharedReq [1300:133f] IF miss
1087027000: system.cpu.dcache: access for ReadReq [54cc0:54cc3] hit state: e (M) writable: 1 readable: 1 dirty: 1 prefetched: 0 | tag: 0xa secure: 0 valid: 1 | set: 0x133 way: 0
1087027000: system.cpu.dcache: access for ReadReq [54ccc:54ccf] hit state: e (M) writable: 1 readable: 1 dirty: 1 prefetched: 0 | tag: 0xa secure: 0 valid: 1 | set: 0x133 way: 0
1087034000: system.cpu.icache: access for ReadReq [1280:12bf] IF hit state: 6 (E) writable: 1 readable: 1 dirty: 0 prefetched: 0 | tag: 0 secure: 0 valid: 1 | set: 0x4a way: 0
1087036000: system.cpu.icache: access for ReadReq [12c0:12ff] IF hit state: 6 (E) writable: 1 readable: 1 dirty: 0 prefetched: 0 | tag: 0 secure: 0 valid: 1 | set: 0x4b way: 0x1
1087037000: system.l2cache: sendWriteQueuePacket: write CleanEvict [33380:333bf]
1087039000: system.cpu.icache: access for ReadReq [1280:12bf] IF hit state: 6 (E) writable: 1 readable: 1 dirty: 0 prefetched: 0 | tag: 0 secure: 0 valid: 1 | set: 0x4a way: 0
1087041000: system.cpu.icache: access for ReadReq [12c0:12ff] IF hit state: 6 (E) writable: 1 readable: 1 dirty: 0 prefetched: 0 | tag: 0 secure: 0 valid: 1 | set: 0x4b way: 0x1
1087044000: system.cpu.icache: access for ReadReq [1280:12bf] IF hit state: 6 (E) writable: 1 readable: 1 dirty: 0 prefetched: 0 | tag: 0 secure: 0 valid: 1 | set: 0x4a way: 0
1087044000: system.cpu.dcache: access for ReadReq [54cc0:54cc3] hit state: e (M) writable: 1 readable: 1 dirty: 1 prefetched: 0 | tag: 0xa secure: 0 valid: 1 | set: 0x133 way: 0
1087044000: system.cpu.dcache: access for ReadReq [54cc0:54cc3] hit state: e (M) writable: 1 readable: 1 dirty: 1 prefetched: 0 | tag: 0xa secure: 0 valid: 1 | set: 0x133 way: 0
1087046000: system.cpu.icache: access for ReadReq [12c0:12ff] IF hit state: 6 (E) writable: 1 readable: 1 dirty: 0 prefetched: 0 | tag: 0 secure: 0 valid: 1 | set: 0x4b way: 0x1
1087048000: system.l2cache: sendMSHRQueuePacket: MSHR ReadSharedReq [1300:133f] IF
1087048000: system.l2cache: createMissPacket: created ReadSharedReq [1300:133f] IF from ReadSharedReq [1300:133f] IF
1087049000: system.cpu.icache: access for ReadReq [1280:12bf] IF hit state: 6 (E) writable: 1 readable: 1 dirty: 0 prefetched: 0 | tag: 0 secure: 0 valid: 1 | set: 0x4a way: 0
1087051000: system.cpu.icache: access for ReadReq [12c0:12ff] IF hit state: 6 (E) writable: 1 readable: 1 dirty: 0 prefetched: 0 | tag: 0 secure: 0 valid: 1 | set: 0x4b way: 0x1
1087053000: system.cpu.icache: access for ReadReq [1280:12bf] IF hit state: 6 (E) writable: 1 readable: 1 dirty: 0 prefetched: 0 | tag: 0 secure: 0 valid: 1 | set: 0x4a way: 0
1087053000: system.cpu.dcache: access for WriteReq [54cc0:54cc3] hit state: e (M) writable: 1 readable: 1 dirty: 1 prefetched: 0 | tag: 0xa secure: 0 valid: 1 | set: 0x133 way: 0
1087055000: system.cpu.icache: access for ReadReq [12c0:12ff] IF hit state: 6 (E) writable: 1 readable: 1 dirty: 0 prefetched: 0 | tag: 0 secure: 0 valid: 1 | set: 0x4b way: 0x1
1087058000: system.cpu.icache: access for ReadReq [1280:12bf] IF hit state: 6 (E) writable: 1 readable: 1 dirty: 0 prefetched: 0 | tag: 0 secure: 0 valid: 1 | set: 0x4a way: 0
1087058000: system.cpu.dcache: access for ReadReq [54cc0:54cc3] hit state: e (M) writable: 1 readable: 1 dirty: 1 prefetched: 0 | tag: 0xa secure: 0 valid: 1 | set: 0x133 way: 0
1087060000: system.cpu.icache: access for ReadReq [12c0:12ff] IF hit state: 6 (E) writable: 1 readable: 1 dirty: 0 prefetched: 0 | tag: 0 secure: 0 valid: 1 | set: 0x4b way: 0x1
1087062000: system.cpu.dcache: access for ReadReq [54cc0:54cc3] hit state: e (M) writable: 1 readable: 1 dirty: 1 prefetched: 0 | tag: 0xa secure: 0 valid: 1 | set: 0x133 way: 0
1087063000: system.cpu.icache: access for ReadReq [1280:12bf] IF hit state: 6 (E) writable: 1 readable: 1 dirty: 0 prefetched: 0 | tag: 0 secure: 0 valid: 1 | set: 0x4a way: 0
1087065000: system.cpu.icache: access for ReadReq [12c0:12ff] IF hit state: 6 (E) writable: 1 readable: 1 dirty: 0 prefetched: 0 | tag: 0 secure: 0 valid: 1 | set: 0x4b way: 0x1
1087068000: system.cpu.icache: access for ReadReq [1280:12bf] IF hit state: 6 (E) writable: 1 readable: 1 dirty: 0 prefetched: 0 | tag: 0 secure: 0 valid: 1 | set: 0x4a way: 0
1087070000: system.cpu.icache: access for ReadReq [12c0:12ff] IF hit state: 6 (E) writable: 1 readable: 1 dirty: 0 prefetched: 0 | tag: 0 secure: 0 valid: 1 | set: 0x4b way: 0x1
1087070000: system.cpu.dcache: access for WriteReq [54cc0:54cc3] hit state: e (M) writable: 1 readable: 1 dirty: 1 prefetched: 0 | tag: 0xa secure: 0 valid: 1 | set: 0x133 way: 0
1087073000: system.cpu.icache: access for ReadReq [1280:12bf] IF hit state: 6 (E) writable: 1 readable: 1 dirty: 0 prefetched: 0 | tag: 0 secure: 0 valid: 1 | set: 0x4a way: 0
1087074000: system.cpu.dcache: access for WriteReq [54cc0:54cc3] hit state: e (M) writable: 1 readable: 1 dirty: 1 prefetched: 0 | tag: 0xa secure: 0 valid: 1 | set: 0x133 way: 0
1087075000: system.cpu.icache: access for ReadReq [12c0:12ff] IF hit state: 6 (E) writable: 1 readable: 1 dirty: 0 prefetched: 0 | tag: 0 secure: 0 valid: 1 | set: 0x4b way: 0x1
1087078000: system.cpu.icache: access for ReadReq [1280:12bf] IF hit state: 6 (E) writable: 1 readable: 1 dirty: 0 prefetched: 0 | tag: 0 secure: 0 valid: 1 | set: 0x4a way: 0
1087079000: system.cpu.dcache: access for WriteReq [54cc0:54cc3] hit state: e (M) writable: 1 readable: 1 dirty: 1 prefetched: 0 | tag: 0xa secure: 0 valid: 1 | set: 0x133 way: 0
1087080000: system.cpu.icache: access for ReadReq [12c0:12ff] IF hit state: 6 (E) writable: 1 readable: 1 dirty: 0 prefetched: 0 | tag: 0 secure: 0 valid: 1 | set: 0x4b way: 0x1
1087083000: system.cpu.icache: access for ReadReq [1280:12bf] IF hit state: 6 (E) writable: 1 readable: 1 dirty: 0 prefetched: 0 | tag: 0 secure: 0 valid: 1 | set: 0x4a way: 0
1087084000: system.cpu.dcache: access for WriteReq [54cc0:54cc3] hit state: e (M) writable: 1 readable: 1 dirty: 1 prefetched: 0 | tag: 0xa secure: 0 valid: 1 | set: 0x133 way: 0
1087085000: system.cpu.icache: access for ReadReq [12c0:12ff] IF hit state: 6 (E) writable: 1 readable: 1 dirty: 0 prefetched: 0 | tag: 0 secure: 0 valid: 1 | set: 0x4b way: 0x1
1087088000: system.cpu.icache: access for ReadReq [1280:12bf] IF hit state: 6 (E) writable: 1 readable: 1 dirty: 0 prefetched: 0 | tag: 0 secure: 0 valid: 1 | set: 0x4a way: 0
1087089000: system.cpu.dcache: access for WriteReq [54cc0:54cc3] hit state: e (M) writable: 1 readable: 1 dirty: 1 prefetched: 0 | tag: 0xa secure: 0 valid: 1 | set: 0x133 way: 0
1087090000: system.cpu.icache: access for ReadReq [12c0:12ff] IF hit state: 6 (E) writable: 1 readable: 1 dirty: 0 prefetched: 0 | tag: 0 secure: 0 valid: 1 | set: 0x4b way: 0x1
1087093000: system.cpu.icache: access for ReadReq [1280:12bf] IF hit state: 6 (E) writable: 1 readable: 1 dirty: 0 prefetched: 0 | tag: 0 secure: 0 valid: 1 | set: 0x4a way: 0
1087094000: system.cpu.dcache: access for WriteReq [54cc0:54cc3] hit state: e (M) writable: 1 readable: 1 dirty: 1 prefetched: 0 | tag: 0xa secure: 0 valid: 1 | set: 0x133 way: 0
1087095000: system.cpu.icache: access for ReadReq [12c0:12ff] IF hit state: 6 (E) writable: 1 readable: 1 dirty: 0 prefetched: 0 | tag: 0 secure: 0 valid: 1 | set: 0x4b way: 0x1
1087097000: system.l2cache: recvTimingResp: Handling response ReadResp [1300:133f] IF
1087097000: system.l2cache: Block for addr 0x1300 being updated in Cache
1087097000: system.l2cache: Create Writeback WritebackDirty [9300:933f] writable: 1, dirty: 1
1087097000: system.l2cache: Block addr 0x1300 (ns) moving from  to state: 6 (E) writable: 1 readable: 1 dirty: 0 prefetched: 0 | tag: 0 secure: 0 valid: 1 | set: 0x4c way: 0x3
1087098000: system.cpu.icache: access for ReadReq [1280:12bf] IF hit state: 6 (E) writable: 1 readable: 1 dirty: 0 prefetched: 0 | tag: 0 secure: 0 valid: 1 | set: 0x4a way: 0
1087099000: system.cpu.dcache: access for WriteReq [54cc0:54cc3] hit state: e (M) writable: 1 readable: 1 dirty: 1 prefetched: 0 | tag: 0xa secure: 0 valid: 1 | set: 0x133 way: 0
1087100000: system.cpu.icache: access for ReadReq [12c0:12ff] IF hit state: 6 (E) writable: 1 readable: 1 dirty: 0 prefetched: 0 | tag: 0 secure: 0 valid: 1 | set: 0x4b way: 0x1
1087103000: system.cpu.icache: access for ReadReq [1280:12bf] IF hit state: 6 (E) writable: 1 readable: 1 dirty: 0 prefetched: 0 | tag: 0 secure: 0 valid: 1 | set: 0x4a way: 0
1087104000: system.cpu.dcache: access for WriteReq [54cc0:54cc3] hit state: e (M) writable: 1 readable: 1 dirty: 1 prefetched: 0 | tag: 0xa secure: 0 valid: 1 | set: 0x133 way: 0
1087105000: system.cpu.icache: access for ReadReq [12c0:12ff] IF hit state: 6 (E) writable: 1 readable: 1 dirty: 0 prefetched: 0 | tag: 0 secure: 0 valid: 1 | set: 0x4b way: 0x1
1087108000: system.cpu.icache: access for ReadReq [1280:12bf] IF hit state: 6 (E) writable: 1 readable: 1 dirty: 0 prefetched: 0 | tag: 0 secure: 0 valid: 1 | set: 0x4a way: 0
1087109000: system.cpu.dcache: access for WriteReq [54cc0:54cc3] hit state: e (M) writable: 1 readable: 1 dirty: 1 prefetched: 0 | tag: 0xa secure: 0 valid: 1 | set: 0x133 way: 0
1087110000: system.cpu.icache: access for ReadReq [12c0:12ff] IF hit state: 6 (E) writable: 1 readable: 1 dirty: 0 prefetched: 0 | tag: 0 secure: 0 valid: 1 | set: 0x4b way: 0x1
1087113000: system.cpu.icache: access for ReadReq [1280:12bf] IF hit state: 6 (E) writable: 1 readable: 1 dirty: 0 prefetched: 0 | tag: 0 secure: 0 valid: 1 | set: 0x4a way: 0
1087114000: system.cpu.dcache: access for WriteReq [54cc0:54cc3] hit state: e (M) writable: 1 readable: 1 dirty: 1 prefetched: 0 | tag: 0xa secure: 0 valid: 1 | set: 0x133 way: 0
1087115000: system.cpu.icache: access for ReadReq [12c0:12ff] IF hit state: 6 (E) writable: 1 readable: 1 dirty: 0 prefetched: 0 | tag: 0 secure: 0 valid: 1 | set: 0x4b way: 0x1
1087117000: system.l2cache: sendWriteQueuePacket: write WritebackDirty [9300:933f]
1087118000: system.cpu.icache: recvTimingResp: Handling response ReadResp [1300:133f] IF
1087118000: system.cpu.icache: Block for addr 0x1300 being updated in Cache
1087118000: system.cpu.icache: Create CleanEvict CleanEvict [ab300:ab33f]
1087118000: system.cpu.icache: Block addr 0x1300 (ns) moving from  to state: 6 (E) writable: 1 readable: 1 dirty: 0 prefetched: 0 | tag: 0 secure: 0 valid: 1 | set: 0x4c way: 0
1087118000: system.cpu.icache: access for ReadReq [1280:12bf] IF hit state: 6 (E) writable: 1 readable: 1 dirty: 0 prefetched: 0 | tag: 0 secure: 0 valid: 1 | set: 0x4a way: 0
1087119000: system.cpu.dcache: access for WriteReq [54cc0:54cc3] hit state: e (M) writable: 1 readable: 1 dirty: 1 prefetched: 0 | tag: 0xa secure: 0 valid: 1 | set: 0x133 way: 0
1087120000: system.cpu.icache: sendWriteQueuePacket: write CleanEvict [ab300:ab33f]
1087120000: system.l2cache: access for CleanEvict [ab300:ab33f] hit state: 6 (E) writable: 1 readable: 1 dirty: 0 prefetched: 0 | tag: 0x15 secure: 0 valid: 1 | set: 0xcc way: 0x4
1087120000: system.l2cache: handleTimingReqHit satisfied CleanEvict [ab300:ab33f], no response needed
1087121000: system.cpu.icache: access for ReadReq [12c0:12ff] IF hit state: 6 (E) writable: 1 readable: 1 dirty: 0 prefetched: 0 | tag: 0 secure: 0 valid: 1 | set: 0x4b way: 0x1
1087124000: system.cpu.icache: access for ReadReq [1280:12bf] IF hit state: 6 (E) writable: 1 readable: 1 dirty: 0 prefetched: 0 | tag: 0 secure: 0 valid: 1 | set: 0x4a way: 0
1087124000: system.cpu.dcache: access for WriteReq [54cc0:54cc3] hit state: e (M) writable: 1 readable: 1 dirty: 1 prefetched: 0 | tag: 0xa secure: 0 valid: 1 | set: 0x133 way: 0
1087126000: system.cpu.icache: access for ReadReq [12c0:12ff] IF hit state: 6 (E) writable: 1 readable: 1 dirty: 0 prefetched: 0 | tag: 0 secure: 0 valid: 1 | set: 0x4b way: 0x1
1087129000: system.cpu.icache: access for ReadReq [1280:12bf] IF hit state: 6 (E) writable: 1 readable: 1 dirty: 0 prefetched: 0 | tag: 0 secure: 0 valid: 1 | set: 0x4a way: 0
1087129000: system.cpu.dcache: access for WriteReq [54cc0:54cc3] hit state: e (M) writable: 1 readable: 1 dirty: 1 prefetched: 0 | tag: 0xa secure: 0 valid: 1 | set: 0x133 way: 0
1087131000: system.cpu.icache: access for ReadReq [12c0:12ff] IF hit state: 6 (E) writable: 1 readable: 1 dirty: 0 prefetched: 0 | tag: 0 secure: 0 valid: 1 | set: 0x4b way: 0x1
1087134000: system.cpu.icache: access for ReadReq [1280:12bf] IF hit state: 6 (E) writable: 1 readable: 1 dirty: 0 prefetched: 0 | tag: 0 secure: 0 valid: 1 | set: 0x4a way: 0
1087135000: system.cpu.dcache: access for WriteReq [54cc0:54cc3] hit state: e (M) writable: 1 readable: 1 dirty: 1 prefetched: 0 | tag: 0xa secure: 0 valid: 1 | set: 0x133 way: 0
1087136000: system.cpu.icache: access for ReadReq [12c0:12ff] IF hit state: 6 (E) writable: 1 readable: 1 dirty: 0 prefetched: 0 | tag: 0 secure: 0 valid: 1 | set: 0x4b way: 0x1
1087139000: system.cpu.icache: access for ReadReq [1280:12bf] IF hit state: 6 (E) writable: 1 readable: 1 dirty: 0 prefetched: 0 | tag: 0 secure: 0 valid: 1 | set: 0x4a way: 0
1087140000: system.cpu.dcache: access for WriteReq [54cc0:54cc3] hit state: e (M) writable: 1 readable: 1 dirty: 1 prefetched: 0 | tag: 0xa secure: 0 valid: 1 | set: 0x133 way: 0
1087141000: system.cpu.icache: access for ReadReq [12c0:12ff] IF hit state: 6 (E) writable: 1 readable: 1 dirty: 0 prefetched: 0 | tag: 0 secure: 0 valid: 1 | set: 0x4b way: 0x1
1087144000: system.cpu.icache: access for ReadReq [1280:12bf] IF hit state: 6 (E) writable: 1 readable: 1 dirty: 0 prefetched: 0 | tag: 0 secure: 0 valid: 1 | set: 0x4a way: 0
1087145000: system.cpu.dcache: access for WriteReq [54cc0:54cc3] hit state: e (M) writable: 1 readable: 1 dirty: 1 prefetched: 0 | tag: 0xa secure: 0 valid: 1 | set: 0x133 way: 0
1087146000: system.cpu.icache: access for ReadReq [12c0:12ff] IF hit state: 6 (E) writable: 1 readable: 1 dirty: 0 prefetched: 0 | tag: 0 secure: 0 valid: 1 | set: 0x4b way: 0x1
1087149000: system.cpu.icache: access for ReadReq [1280:12bf] IF hit state: 6 (E) writable: 1 readable: 1 dirty: 0 prefetched: 0 | tag: 0 secure: 0 valid: 1 | set: 0x4a way: 0
1087150000: system.cpu.dcache: access for WriteReq [54cc0:54cc3] hit state: e (M) writable: 1 readable: 1 dirty: 1 prefetched: 0 | tag: 0xa secure: 0 valid: 1 | set: 0x133 way: 0
1087151000: system.cpu.icache: access for ReadReq [12c0:12ff] IF hit state: 6 (E) writable: 1 readable: 1 dirty: 0 prefetched: 0 | tag: 0 secure: 0 valid: 1 | set: 0x4b way: 0x1
1087154000: system.cpu.icache: access for ReadReq [1280:12bf] IF hit state: 6 (E) writable: 1 readable: 1 dirty: 0 prefetched: 0 | tag: 0 secure: 0 valid: 1 | set: 0x4a way: 0
1087155000: system.cpu.dcache: access for WriteReq [54cc0:54cc3] hit state: e (M) writable: 1 readable: 1 dirty: 1 prefetched: 0 | tag: 0xa secure: 0 valid: 1 | set: 0x133 way: 0
1087156000: system.cpu.icache: access for ReadReq [12c0:12ff] IF hit state: 6 (E) writable: 1 readable: 1 dirty: 0 prefetched: 0 | tag: 0 secure: 0 valid: 1 | set: 0x4b way: 0x1
1087159000: system.cpu.icache: access for ReadReq [1280:12bf] IF hit state: 6 (E) writable: 1 readable: 1 dirty: 0 prefetched: 0 | tag: 0 secure: 0 valid: 1 | set: 0x4a way: 0
1087160000: system.cpu.dcache: access for WriteReq [54cc0:54cc3] hit state: e (M) writable: 1 readable: 1 dirty: 1 prefetched: 0 | tag: 0xa secure: 0 valid: 1 | set: 0x133 way: 0
1087161000: system.cpu.icache: access for ReadReq [12c0:12ff] IF hit state: 6 (E) writable: 1 readable: 1 dirty: 0 prefetched: 0 | tag: 0 secure: 0 valid: 1 | set: 0x4b way: 0x1
1087164000: system.cpu.icache: access for ReadReq [1280:12bf] IF hit state: 6 (E) writable: 1 readable: 1 dirty: 0 prefetched: 0 | tag: 0 secure: 0 valid: 1 | set: 0x4a way: 0
1087165000: system.cpu.dcache: access for WriteReq [54cc0:54cc3] hit state: e (M) writable: 1 readable: 1 dirty: 1 prefetched: 0 | tag: 0xa secure: 0 valid: 1 | set: 0x133 way: 0
1087166000: system.cpu.icache: access for ReadReq [12c0:12ff] IF hit state: 6 (E) writable: 1 readable: 1 dirty: 0 prefetched: 0 | tag: 0 secure: 0 valid: 1 | set: 0x4b way: 0x1
1087169000: system.cpu.icache: access for ReadReq [1280:12bf] IF hit state: 6 (E) writable: 1 readable: 1 dirty: 0 prefetched: 0 | tag: 0 secure: 0 valid: 1 | set: 0x4a way: 0
1087170000: system.cpu.dcache: access for WriteReq [54cc0:54cc3] hit state: e (M) writable: 1 readable: 1 dirty: 1 prefetched: 0 | tag: 0xa secure: 0 valid: 1 | set: 0x133 way: 0
1087171000: system.cpu.icache: access for ReadReq [12c0:12ff] IF hit state: 6 (E) writable: 1 readable: 1 dirty: 0 prefetched: 0 | tag: 0 secure: 0 valid: 1 | set: 0x4b way: 0x1
1087174000: system.cpu.icache: access for ReadReq [1280:12bf] IF hit state: 6 (E) writable: 1 readable: 1 dirty: 0 prefetched: 0 | tag: 0 secure: 0 valid: 1 | set: 0x4a way: 0
1087175000: system.cpu.dcache: access for WriteReq [54cc0:54cc3] hit state: e (M) writable: 1 readable: 1 dirty: 1 prefetched: 0 | tag: 0xa secure: 0 valid: 1 | set: 0x133 way: 0
1087176000: system.cpu.icache: access for ReadReq [12c0:12ff] IF hit state: 6 (E) writable: 1 readable: 1 dirty: 0 prefetched: 0 | tag: 0 secure: 0 valid: 1 | set: 0x4b way: 0x1
1087179000: system.cpu.icache: access for ReadReq [1280:12bf] IF hit state: 6 (E) writable: 1 readable: 1 dirty: 0 prefetched: 0 | tag: 0 secure: 0 valid: 1 | set: 0x4a way: 0
1087180000: system.cpu.dcache: access for WriteReq [54cc0:54cc3] hit state: e (M) writable: 1 readable: 1 dirty: 1 prefetched: 0 | tag: 0xa secure: 0 valid: 1 | set: 0x133 way: 0
1087181000: system.cpu.icache: access for ReadReq [12c0:12ff] IF hit state: 6 (E) writable: 1 readable: 1 dirty: 0 prefetched: 0 | tag: 0 secure: 0 valid: 1 | set: 0x4b way: 0x1
1087184000: system.cpu.icache: access for ReadReq [1280:12bf] IF hit state: 6 (E) writable: 1 readable: 1 dirty: 0 prefetched: 0 | tag: 0 secure: 0 valid: 1 | set: 0x4a way: 0
1087185000: system.cpu.dcache: access for WriteReq [54cc0:54cc3] hit state: e (M) writable: 1 readable: 1 dirty: 1 prefetched: 0 | tag: 0xa secure: 0 valid: 1 | set: 0x133 way: 0
1087186000: system.cpu.icache: access for ReadReq [12c0:12ff] IF hit state: 6 (E) writable: 1 readable: 1 dirty: 0 prefetched: 0 | tag: 0 secure: 0 valid: 1 | set: 0x4b way: 0x1
1087189000: system.cpu.icache: access for ReadReq [1280:12bf] IF hit state: 6 (E) writable: 1 readable: 1 dirty: 0 prefetched: 0 | tag: 0 secure: 0 valid: 1 | set: 0x4a way: 0
1087190000: system.cpu.dcache: access for WriteReq [54cc0:54cc3] hit state: e (M) writable: 1 readable: 1 dirty: 1 prefetched: 0 | tag: 0xa secure: 0 valid: 1 | set: 0x133 way: 0
1087191000: system.cpu.icache: access for ReadReq [12c0:12ff] IF hit state: 6 (E) writable: 1 readable: 1 dirty: 0 prefetched: 0 | tag: 0 secure: 0 valid: 1 | set: 0x4b way: 0x1
1087194000: system.cpu.icache: access for ReadReq [1280:12bf] IF hit state: 6 (E) writable: 1 readable: 1 dirty: 0 prefetched: 0 | tag: 0 secure: 0 valid: 1 | set: 0x4a way: 0
1087195000: system.cpu.dcache: access for WriteReq [54cc0:54cc3] hit state: e (M) writable: 1 readable: 1 dirty: 1 prefetched: 0 | tag: 0xa secure: 0 valid: 1 | set: 0x133 way: 0
1087196000: system.cpu.icache: access for ReadReq [12c0:12ff] IF hit state: 6 (E) writable: 1 readable: 1 dirty: 0 prefetched: 0 | tag: 0 secure: 0 valid: 1 | set: 0x4b way: 0x1
1087199000: system.cpu.icache: access for ReadReq [1280:12bf] IF hit state: 6 (E) writable: 1 readable: 1 dirty: 0 prefetched: 0 | tag: 0 secure: 0 valid: 1 | set: 0x4a way: 0
1087200000: system.cpu.dcache: access for WriteReq [54cc0:54cc3] hit state: e (M) writable: 1 readable: 1 dirty: 1 prefetched: 0 | tag: 0xa secure: 0 valid: 1 | set: 0x133 way: 0
1087201000: system.cpu.icache: access for ReadReq [12c0:12ff] IF hit state: 6 (E) writable: 1 readable: 1 dirty: 0 prefetched: 0 | tag: 0 secure: 0 valid: 1 | set: 0x4b way: 0x1
1087204000: system.cpu.icache: access for ReadReq [1280:12bf] IF hit state: 6 (E) writable: 1 readable: 1 dirty: 0 prefetched: 0 | tag: 0 secure: 0 valid: 1 | set: 0x4a way: 0
1087205000: system.cpu.dcache: access for WriteReq [54cc0:54cc3] hit state: e (M) writable: 1 readable: 1 dirty: 1 prefetched: 0 | tag: 0xa secure: 0 valid: 1 | set: 0x133 way: 0
1087206000: system.cpu.icache: access for ReadReq [12c0:12ff] IF hit state: 6 (E) writable: 1 readable: 1 dirty: 0 prefetched: 0 | tag: 0 secure: 0 valid: 1 | set: 0x4b way: 0x1
1087209000: system.cpu.icache: access for ReadReq [1280:12bf] IF hit state: 6 (E) writable: 1 readable: 1 dirty: 0 prefetched: 0 | tag: 0 secure: 0 valid: 1 | set: 0x4a way: 0
1087210000: system.cpu.dcache: access for WriteReq [54cc0:54cc3] hit state: e (M) writable: 1 readable: 1 dirty: 1 prefetched: 0 | tag: 0xa secure: 0 valid: 1 | set: 0x133 way: 0
1087211000: system.cpu.icache: access for ReadReq [12c0:12ff] IF hit state: 6 (E) writable: 1 readable: 1 dirty: 0 prefetched: 0 | tag: 0 secure: 0 valid: 1 | set: 0x4b way: 0x1
1087214000: system.cpu.icache: access for ReadReq [1280:12bf] IF hit state: 6 (E) writable: 1 readable: 1 dirty: 0 prefetched: 0 | tag: 0 secure: 0 valid: 1 | set: 0x4a way: 0
1087215000: system.cpu.dcache: access for WriteReq [54cc0:54cc3] hit state: e (M) writable: 1 readable: 1 dirty: 1 prefetched: 0 | tag: 0xa secure: 0 valid: 1 | set: 0x133 way: 0
1087216000: system.cpu.icache: access for ReadReq [12c0:12ff] IF hit state: 6 (E) writable: 1 readable: 1 dirty: 0 prefetched: 0 | tag: 0 secure: 0 valid: 1 | set: 0x4b way: 0x1
1087219000: system.cpu.icache: access for ReadReq [1280:12bf] IF hit state: 6 (E) writable: 1 readable: 1 dirty: 0 prefetched: 0 | tag: 0 secure: 0 valid: 1 | set: 0x4a way: 0
1087220000: system.cpu.dcache: access for WriteReq [54cc0:54cc3] hit state: e (M) writable: 1 readable: 1 dirty: 1 prefetched: 0 | tag: 0xa secure: 0 valid: 1 | set: 0x133 way: 0
1087221000: system.cpu.icache: access for ReadReq [12c0:12ff] IF hit state: 6 (E) writable: 1 readable: 1 dirty: 0 prefetched: 0 | tag: 0 secure: 0 valid: 1 | set: 0x4b way: 0x1
1087224000: system.cpu.icache: access for ReadReq [1280:12bf] IF hit state: 6 (E) writable: 1 readable: 1 dirty: 0 prefetched: 0 | tag: 0 secure: 0 valid: 1 | set: 0x4a way: 0
1087225000: system.cpu.dcache: access for WriteReq [54cc0:54cc3] hit state: e (M) writable: 1 readable: 1 dirty: 1 prefetched: 0 | tag: 0xa secure: 0 valid: 1 | set: 0x133 way: 0
1087226000: system.cpu.icache: access for ReadReq [12c0:12ff] IF hit state: 6 (E) writable: 1 readable: 1 dirty: 0 prefetched: 0 | tag: 0 secure: 0 valid: 1 | set: 0x4b way: 0x1
1087229000: system.cpu.icache: access for ReadReq [1280:12bf] IF hit state: 6 (E) writable: 1 readable: 1 dirty: 0 prefetched: 0 | tag: 0 secure: 0 valid: 1 | set: 0x4a way: 0
1087230000: system.cpu.dcache: access for WriteReq [54cc0:54cc3] hit state: e (M) writable: 1 readable: 1 dirty: 1 prefetched: 0 | tag: 0xa secure: 0 valid: 1 | set: 0x133 way: 0
1087231000: system.cpu.icache: access for ReadReq [12c0:12ff] IF hit state: 6 (E) writable: 1 readable: 1 dirty: 0 prefetched: 0 | tag: 0 secure: 0 valid: 1 | set: 0x4b way: 0x1
1087234000: system.cpu.icache: access for ReadReq [1280:12bf] IF hit state: 6 (E) writable: 1 readable: 1 dirty: 0 prefetched: 0 | tag: 0 secure: 0 valid: 1 | set: 0x4a way: 0
1087235000: system.cpu.dcache: access for WriteReq [54cc0:54cc3] hit state: e (M) writable: 1 readable: 1 dirty: 1 prefetched: 0 | tag: 0xa secure: 0 valid: 1 | set: 0x133 way: 0
1087236000: system.cpu.icache: access for ReadReq [12c0:12ff] IF hit state: 6 (E) writable: 1 readable: 1 dirty: 0 prefetched: 0 | tag: 0 secure: 0 valid: 1 | set: 0x4b way: 0x1
1087239000: system.cpu.icache: access for ReadReq [1280:12bf] IF hit state: 6 (E) writable: 1 readable: 1 dirty: 0 prefetched: 0 | tag: 0 secure: 0 valid: 1 | set: 0x4a way: 0
1087240000: system.cpu.dcache: access for WriteReq [54cc0:54cc3] hit state: e (M) writable: 1 readable: 1 dirty: 1 prefetched: 0 | tag: 0xa secure: 0 valid: 1 | set: 0x133 way: 0
1087241000: system.cpu.icache: access for ReadReq [12c0:12ff] IF hit state: 6 (E) writable: 1 readable: 1 dirty: 0 prefetched: 0 | tag: 0 secure: 0 valid: 1 | set: 0x4b way: 0x1
1087244000: system.cpu.icache: access for ReadReq [1280:12bf] IF hit state: 6 (E) writable: 1 readable: 1 dirty: 0 prefetched: 0 | tag: 0 secure: 0 valid: 1 | set: 0x4a way: 0
1087245000: system.cpu.dcache: access for WriteReq [54cc0:54cc3] hit state: e (M) writable: 1 readable: 1 dirty: 1 prefetched: 0 | tag: 0xa secure: 0 valid: 1 | set: 0x133 way: 0
1087246000: system.cpu.icache: access for ReadReq [12c0:12ff] IF hit state: 6 (E) writable: 1 readable: 1 dirty: 0 prefetched: 0 | tag: 0 secure: 0 valid: 1 | set: 0x4b way: 0x1
1087249000: system.cpu.icache: access for ReadReq [1280:12bf] IF hit state: 6 (E) writable: 1 readable: 1 dirty: 0 prefetched: 0 | tag: 0 secure: 0 valid: 1 | set: 0x4a way: 0
1087250000: system.cpu.dcache: access for WriteReq [54cc0:54cc3] hit state: e (M) writable: 1 readable: 1 dirty: 1 prefetched: 0 | tag: 0xa secure: 0 valid: 1 | set: 0x133 way: 0
1087251000: system.cpu.icache: access for ReadReq [12c0:12ff] IF hit state: 6 (E) writable: 1 readable: 1 dirty: 0 prefetched: 0 | tag: 0 secure: 0 valid: 1 | set: 0x4b way: 0x1
1087254000: system.cpu.icache: access for ReadReq [1280:12bf] IF hit state: 6 (E) writable: 1 readable: 1 dirty: 0 prefetched: 0 | tag: 0 secure: 0 valid: 1 | set: 0x4a way: 0
1087255000: system.cpu.dcache: access for WriteReq [54cc0:54cc3] hit state: e (M) writable: 1 readable: 1 dirty: 1 prefetched: 0 | tag: 0xa secure: 0 valid: 1 | set: 0x133 way: 0
1087256000: system.cpu.icache: access for ReadReq [12c0:12ff] IF hit state: 6 (E) writable: 1 readable: 1 dirty: 0 prefetched: 0 | tag: 0 secure: 0 valid: 1 | set: 0x4b way: 0x1
1087259000: system.cpu.icache: access for ReadReq [1280:12bf] IF hit state: 6 (E) writable: 1 readable: 1 dirty: 0 prefetched: 0 | tag: 0 secure: 0 valid: 1 | set: 0x4a way: 0
1087260000: system.cpu.dcache: access for WriteReq [54cc0:54cc3] hit state: e (M) writable: 1 readable: 1 dirty: 1 prefetched: 0 | tag: 0xa secure: 0 valid: 1 | set: 0x133 way: 0
1087261000: system.cpu.icache: access for ReadReq [12c0:12ff] IF hit state: 6 (E) writable: 1 readable: 1 dirty: 0 prefetched: 0 | tag: 0 secure: 0 valid: 1 | set: 0x4b way: 0x1
1087264000: system.cpu.icache: access for ReadReq [1280:12bf] IF hit state: 6 (E) writable: 1 readable: 1 dirty: 0 prefetched: 0 | tag: 0 secure: 0 valid: 1 | set: 0x4a way: 0
1087265000: system.cpu.dcache: access for WriteReq [54cc0:54cc3] hit state: e (M) writable: 1 readable: 1 dirty: 1 prefetched: 0 | tag: 0xa secure: 0 valid: 1 | set: 0x133 way: 0
1087266000: system.cpu.icache: access for ReadReq [12c0:12ff] IF hit state: 6 (E) writable: 1 readable: 1 dirty: 0 prefetched: 0 | tag: 0 secure: 0 valid: 1 | set: 0x4b way: 0x1
1087269000: system.cpu.icache: access for ReadReq [1280:12bf] IF hit state: 6 (E) writable: 1 readable: 1 dirty: 0 prefetched: 0 | tag: 0 secure: 0 valid: 1 | set: 0x4a way: 0
1087270000: system.cpu.dcache: access for WriteReq [54cc0:54cc3] hit state: e (M) writable: 1 readable: 1 dirty: 1 prefetched: 0 | tag: 0xa secure: 0 valid: 1 | set: 0x133 way: 0
1087271000: system.cpu.icache: access for ReadReq [12c0:12ff] IF hit state: 6 (E) writable: 1 readable: 1 dirty: 0 prefetched: 0 | tag: 0 secure: 0 valid: 1 | set: 0x4b way: 0x1
1087274000: system.cpu.icache: access for ReadReq [1280:12bf] IF hit state: 6 (E) writable: 1 readable: 1 dirty: 0 prefetched: 0 | tag: 0 secure: 0 valid: 1 | set: 0x4a way: 0
1087275000: system.cpu.dcache: access for WriteReq [54cc0:54cc3] hit state: e (M) writable: 1 readable: 1 dirty: 1 prefetched: 0 | tag: 0xa secure: 0 valid: 1 | set: 0x133 way: 0
1087276000: system.cpu.icache: access for ReadReq [12c0:12ff] IF hit state: 6 (E) writable: 1 readable: 1 dirty: 0 prefetched: 0 | tag: 0 secure: 0 valid: 1 | set: 0x4b way: 0x1
1087279000: system.cpu.icache: access for ReadReq [1280:12bf] IF hit state: 6 (E) writable: 1 readable: 1 dirty: 0 prefetched: 0 | tag: 0 secure: 0 valid: 1 | set: 0x4a way: 0
1087280000: system.cpu.dcache: access for WriteReq [54cc0:54cc3] hit state: e (M) writable: 1 readable: 1 dirty: 1 prefetched: 0 | tag: 0xa secure: 0 valid: 1 | set: 0x133 way: 0
1087281000: system.cpu.icache: access for ReadReq [12c0:12ff] IF hit state: 6 (E) writable: 1 readable: 1 dirty: 0 prefetched: 0 | tag: 0 secure: 0 valid: 1 | set: 0x4b way: 0x1
1087284000: system.cpu.icache: access for ReadReq [1280:12bf] IF hit state: 6 (E) writable: 1 readable: 1 dirty: 0 prefetched: 0 | tag: 0 secure: 0 valid: 1 | set: 0x4a way: 0
1087285000: system.cpu.dcache: access for WriteReq [54cc0:54cc3] hit state: e (M) writable: 1 readable: 1 dirty: 1 prefetched: 0 | tag: 0xa secure: 0 valid: 1 | set: 0x133 way: 0
1087286000: system.cpu.icache: access for ReadReq [12c0:12ff] IF hit state: 6 (E) writable: 1 readable: 1 dirty: 0 prefetched: 0 | tag: 0 secure: 0 valid: 1 | set: 0x4b way: 0x1
1087289000: system.cpu.icache: access for ReadReq [1280:12bf] IF hit state: 6 (E) writable: 1 readable: 1 dirty: 0 prefetched: 0 | tag: 0 secure: 0 valid: 1 | set: 0x4a way: 0
1087290000: system.cpu.dcache: access for WriteReq [54cc0:54cc3] hit state: e (M) writable: 1 readable: 1 dirty: 1 prefetched: 0 | tag: 0xa secure: 0 valid: 1 | set: 0x133 way: 0
1087291000: system.cpu.icache: access for ReadReq [12c0:12ff] IF hit state: 6 (E) writable: 1 readable: 1 dirty: 0 prefetched: 0 | tag: 0 secure: 0 valid: 1 | set: 0x4b way: 0x1
1087294000: system.cpu.icache: access for ReadReq [1280:12bf] IF hit state: 6 (E) writable: 1 readable: 1 dirty: 0 prefetched: 0 | tag: 0 secure: 0 valid: 1 | set: 0x4a way: 0
1087295000: system.cpu.dcache: access for WriteReq [54cc0:54cc3] hit state: e (M) writable: 1 readable: 1 dirty: 1 prefetched: 0 | tag: 0xa secure: 0 valid: 1 | set: 0x133 way: 0
1087296000: system.cpu.icache: access for ReadReq [12c0:12ff] IF hit state: 6 (E) writable: 1 readable: 1 dirty: 0 prefetched: 0 | tag: 0 secure: 0 valid: 1 | set: 0x4b way: 0x1
1087299000: system.cpu.icache: access for ReadReq [1280:12bf] IF hit state: 6 (E) writable: 1 readable: 1 dirty: 0 prefetched: 0 | tag: 0 secure: 0 valid: 1 | set: 0x4a way: 0
1087300000: system.cpu.dcache: access for WriteReq [54cc0:54cc3] hit state: e (M) writable: 1 readable: 1 dirty: 1 prefetched: 0 | tag: 0xa secure: 0 valid: 1 | set: 0x133 way: 0
1087301000: system.cpu.icache: access for ReadReq [12c0:12ff] IF hit state: 6 (E) writable: 1 readable: 1 dirty: 0 prefetched: 0 | tag: 0 secure: 0 valid: 1 | set: 0x4b way: 0x1
[...]
1117944000: system.cpu.icache: access for ReadReq [aee80:aeebf] IF hit state: 6 (E) writable: 1 readable: 1 dirty: 0 prefetched: 0 | tag: 0x57 secure: 0 valid: 1 | set: 0x3a way: 0x1
1117944000: system.cpu.dcache: access for ReadReq [69980:69983] hit state: 6 (E) writable: 1 readable: 1 dirty: 0 prefetched: 0 | tag: 0xd secure: 0 valid: 1 | set: 0x66 way: 0x1
1117944000: system.cpu.dcache: access for ReadReq [69a40:69a43] hit state: 6 (E) writable: 1 readable: 1 dirty: 0 prefetched: 0 | tag: 0xd secure: 0 valid: 1 | set: 0x69 way: 0x1
1117944000: system.cpu.dcache: access for ReadReq [69a08:69a0f] miss
1117946000: system.cpu.dcache: sendMSHRQueuePacket: MSHR ReadReq [69a08:69a0f]
1117946000: system.cpu.dcache: createMissPacket: created ReadSharedReq [69a00:69a3f] from ReadReq [69a08:69a0f]
1117946000: system.l2cache: access for ReadSharedReq [69a00:69a3f] miss
1117946000: system.cpu.dcache: access for ReadReq [684d8:684db] hit state: e (M) writable: 1 readable: 1 dirty: 1 prefetched: 0 | tag: 0xd secure: 0 valid: 1 | set: 0x13 way: 0
1117946000: system.cpu.dcache: access for WriteReq [63760:63763] hit state: e (M) writable: 1 readable: 1 dirty: 1 prefetched: 0 | tag: 0xc secure: 0 valid: 1 | set: 0xdd way: 0x1
1117947000: system.cpu.icache: access for ReadReq [aeec0:aeeff] IF hit state: 6 (E) writable: 1 readable: 1 dirty: 0 prefetched: 0 | tag: 0x57 secure: 0 valid: 1 | set: 0x3b way: 0x1
1117949000: system.cpu.icache: access for ReadReq [aefc0:aefff] IF hit state: 6 (E) writable: 1 readable: 1 dirty: 0 prefetched: 0 | tag: 0x57 secure: 0 valid: 1 | set: 0x3f way: 0
1117949000: system.cpu.dcache: access for ReadReq [69a08:69a0f] miss
1117949000: system.cpu.dcache: handleTimingReqMiss coalescing MSHR for ReadReq [69a08:69a0f]
1117949000: system.cpu.dcache: access for ReadReq [54c40:54c47] hit state: e (M) writable: 1 readable: 1 dirty: 1 prefetched: 0 | tag: 0xa secure: 0 valid: 1 | set: 0x131 way: 0x1
1117952000: system.cpu.icache: access for ReadReq [aee00:aee3f] IF hit state: 6 (E) writable: 1 readable: 1 dirty: 0 prefetched: 0 | tag: 0x57 secure: 0 valid: 1 | set: 0x38 way: 0x1
1117954000: system.cpu.icache: access for ReadReq [aee40:aee7f] IF hit state: 6 (E) writable: 1 readable: 1 dirty: 0 prefetched: 0 | tag: 0x57 secure: 0 valid: 1 | set: 0x39 way: 0
1117959000: system.cpu.icache: access for ReadReq [aee80:aeebf] IF hit state: 6 (E) writable: 1 readable: 1 dirty: 0 prefetched: 0 | tag: 0x57 secure: 0 valid: 1 | set: 0x3a way: 0x1
1117962000: system.cpu.icache: access for ReadReq [b90c0:b90ff] IF hit state: 6 (E) writable: 1 readable: 1 dirty: 0 prefetched: 0 | tag: 0x5c secure: 0 valid: 1 | set: 0x43 way: 0
1117964000: system.cpu.icache: access for ReadReq [aee80:aeebf] IF hit state: 6 (E) writable: 1 readable: 1 dirty: 0 prefetched: 0 | tag: 0x57 secure: 0 valid: 1 | set: 0x3a way: 0x1
1117965000: system.cpu.dcache: access for ReadReq [699e8:699ef] hit state: 6 (E) writable: 1 readable: 1 dirty: 0 prefetched: 0 | tag: 0xd secure: 0 valid: 1 | set: 0x67 way: 0x1
1117967000: system.l2cache: sendMSHRQueuePacket: MSHR ReadSharedReq [69a00:69a3f]
1117967000: system.l2cache: createMissPacket: created ReadSharedReq [69a00:69a3f] from ReadSharedReq [69a00:69a3f]
1117967000: system.cpu.icache: access for ReadReq [aeec0:aeeff] IF hit state: 6 (E) writable: 1 readable: 1 dirty: 0 prefetched: 0 | tag: 0x57 secure: 0 valid: 1 | set: 0x3b way: 0x1
1117967000: system.cpu.dcache: access for ReadReq [54c40:54c47] hit state: e (M) writable: 1 readable: 1 dirty: 1 prefetched: 0 | tag: 0xa secure: 0 valid: 1 | set: 0x131 way: 0x1
1117968000: system.cpu.dcache: access for ReadReq [0:3] hit state: 4 (S) writable: 0 readable: 1 dirty: 0 prefetched: 0 | tag: 0 secure: 0 valid: 1 | set: 0 way: 0x1
1117968000: system.cpu.dcache: access for ReadReq [c0:c3] hit state: 6 (E) writable: 1 readable: 1 dirty: 0 prefetched: 0 | tag: 0 secure: 0 valid: 1 | set: 0x3 way: 0x1
1117968000: system.cpu.dcache: access for ReadReq [88:8f] miss
1117968000: system.cpu.dcache: access for ReadReq [684d8:684db] hit state: e (M) writable: 1 readable: 1 dirty: 1 prefetched: 0 | tag: 0xd secure: 0 valid: 1 | set: 0x13 way: 0
1117969000: system.cpu.icache: access for ReadReq [aefc0:aefff] IF hit state: 6 (E) writable: 1 readable: 1 dirty: 0 prefetched: 0 | tag: 0x57 secure: 0 valid: 1 | set: 0x3f way: 0
1117970000: system.cpu.dcache: sendMSHRQueuePacket: MSHR ReadReq [88:8f]
1117970000: system.cpu.dcache: createMissPacket: created ReadSharedReq [80:bf] from ReadReq [88:8f]
1117970000: system.l2cache: access for ReadSharedReq [80:bf] miss
1117970000: system.cpu.dcache: access for ReadReq [88:8f] miss
1117970000: system.cpu.dcache: handleTimingReqMiss coalescing MSHR for ReadReq [88:8f]
1117970000: system.cpu.dcache: access for ReadReq [54c40:54c47] hit state: e (M) writable: 1 readable: 1 dirty: 1 prefetched: 0 | tag: 0xa secure: 0 valid: 1 | set: 0x131 way: 0x1
1117970000: system.cpu.dcache: access for WriteReq [69a40:69a43] hit state: 6 (E) writable: 1 readable: 1 dirty: 0 prefetched: 0 | tag: 0xd secure: 0 valid: 1 | set: 0x69 way: 0x1
1117972000: system.cpu.icache: access for ReadReq [aef40:aef7f] IF hit state: 6 (E) writable: 1 readable: 1 dirty: 0 prefetched: 0 | tag: 0x57 secure: 0 valid: 1 | set: 0x3d way: 0x1
1117976000: system.cpu.icache: access for ReadReq [aef80:aefbf] IF miss
1117978000: system.cpu.icache: sendMSHRQueuePacket: MSHR ReadReq [aef80:aefbf] IF
1117978000: system.cpu.icache: createMissPacket: created ReadSharedReq [aef80:aefbf] IF from ReadReq [aef80:aefbf] IF
1117978000: system.l2cache: access for ReadSharedReq [aef80:aefbf] IF miss
1117985000: system.cpu.dcache: access for ReadReq [9e7c4:9e7c7] hit state: e (M) writable: 1 readable: 1 dirty: 1 prefetched: 0 | tag: 0x13 secure: 0 valid: 1 | set: 0x19f way: 0
1117986000: system.cpu.dcache: access for ReadReq [684d8:684db] hit state: e (M) writable: 1 readable: 1 dirty: 1 prefetched: 0 | tag: 0xd secure: 0 valid: 1 | set: 0x13 way: 0
1117988000: system.cpu.dcache: access for ReadReq [9e7c0:9e7c3] hit state: e (M) writable: 1 readable: 1 dirty: 1 prefetched: 0 | tag: 0x13 secure: 0 valid: 1 | set: 0x19f way: 0
1117991000: system.l2cache: sendMSHRQueuePacket: MSHR ReadSharedReq [80:bf]
1117991000: system.l2cache: createMissPacket: created ReadSharedReq [80:bf] from ReadSharedReq [80:bf]
1117992000: system.cpu.icache: access for ReadReq [aef40:aef7f] IF hit state: 6 (E) writable: 1 readable: 1 dirty: 0 prefetched: 0 | tag: 0x57 secure: 0 valid: 1 | set: 0x3d way: 0x1
1117993000: system.cpu.dcache: access for WriteReq [9e7c4:9e7c7] hit state: e (M) writable: 1 readable: 1 dirty: 1 prefetched: 0 | tag: 0x13 secure: 0 valid: 1 | set: 0x19f way: 0
1117994000: system.cpu.icache: access for ReadReq [aef80:aefbf] IF miss
1117994000: system.cpu.icache: handleTimingReqMiss coalescing MSHR for ReadReq [aef80:aefbf] IF
1117995000: system.cpu.dcache: access for WriteReq [9e7c8:9e7cf] hit state: e (M) writable: 1 readable: 1 dirty: 1 prefetched: 0 | tag: 0x13 secure: 0 valid: 1 | set: 0x19f way: 0
1117997000: system.cpu.dcache: access for ReadReq [9e7c0:9e7c3] hit state: e (M) writable: 1 readable: 1 dirty: 1 prefetched: 0 | tag: 0x13 secure: 0 valid: 1 | set: 0x19f way: 0
1117999000: system.l2cache: sendMSHRQueuePacket: MSHR ReadSharedReq [aef80:aefbf] IF
1117999000: system.l2cache: createMissPacket: created ReadSharedReq [aef80:aefbf] IF from ReadSharedReq [aef80:aefbf] IF
1118005000: system.cpu.dcache: access for WriteReq [9e7c0:9e7c3] hit state: e (M) writable: 1 readable: 1 dirty: 1 prefetched: 0 | tag: 0x13 secure: 0 valid: 1 | set: 0x19f way: 0
1118016000: system.l2cache: recvTimingResp: Handling response ReadResp [69a00:69a3f]
1118016000: system.l2cache: Block for addr 0x69a00 being updated in Cache
1118016000: system.l2cache: Create Writeback WritebackDirty [21a00:21a3f] writable: 1, dirty: 1
1118016000: system.l2cache: Block addr 0x69a00 (ns) moving from  to state: 6 (E) writable: 1 readable: 1 dirty: 0 prefetched: 0 | tag: 0xd secure: 0 valid: 1 | set: 0x68 way: 0x1
1118036000: system.l2cache: sendWriteQueuePacket: write WritebackDirty [21a00:21a3f]
1118037000: system.cpu.dcache: recvTimingResp: Handling response ReadResp [69a00:69a3f]
1118037000: system.cpu.dcache: Block for addr 0x69a00 being updated in Cache
1118037000: system.cpu.dcache: Create CleanEvict CleanEvict [79a00:79a3f]
1118037000: system.cpu.dcache: Block addr 0x69a00 (ns) moving from  to state: 6 (E) writable: 1 readable: 1 dirty: 0 prefetched: 0 | tag: 0xd secure: 0 valid: 1 | set: 0x68 way: 0
1118039000: system.cpu.dcache: sendWriteQueuePacket: write CleanEvict [79a00:79a3f]
1118039000: system.l2cache: access for CleanEvict [79a00:79a3f] hit state: 6 (E) writable: 1 readable: 1 dirty: 0 prefetched: 0 | tag: 0xf secure: 0 valid: 1 | set: 0x68 way: 0x4
1118039000: system.l2cache: handleTimingReqHit satisfied CleanEvict [79a00:79a3f], no response needed
1118040000: system.l2cache: recvTimingResp: Handling response ReadResp [80:bf]
1118040000: system.l2cache: Block for addr 0x80 being updated in Cache
1118040000: system.l2cache: Create CleanEvict CleanEvict [70080:700bf]
1118040000: system.l2cache: Block addr 0x80 (ns) moving from  to state: 6 (E) writable: 1 readable: 1 dirty: 0 prefetched: 0 | tag: 0 secure: 0 valid: 1 | set: 0x2 way: 0x3
1118048000: system.l2cache: recvTimingResp: Handling response ReadResp [aef80:aefbf] IF
1118048000: system.l2cache: Block for addr 0xaef80 being updated in Cache
1118048000: system.l2cache: Create CleanEvict CleanEvict [76f80:76fbf]
1118048000: system.l2cache: Block addr 0xaef80 (ns) moving from  to state: 6 (E) writable: 1 readable: 1 dirty: 0 prefetched: 0 | tag: 0x15 secure: 0 valid: 1 | set: 0x1be way: 0x3
1118060000: system.l2cache: sendWriteQueuePacket: write CleanEvict [70080:700bf]
1118061000: system.cpu.dcache: recvTimingResp: Handling response ReadResp [80:bf]
1118061000: system.cpu.dcache: Block for addr 0x80 being updated in Cache
1118061000: system.cpu.dcache: Create CleanEvict CleanEvict [88080:880bf]
1118061000: system.cpu.dcache: Block addr 0x80 (ns) moving from  to state: 6 (E) writable: 1 readable: 1 dirty: 0 prefetched: 0 | tag: 0 secure: 0 valid: 1 | set: 0x2 way: 0x1
1118063000: system.cpu.dcache: sendWriteQueuePacket: write CleanEvict [88080:880bf]
1118063000: system.l2cache: access for CleanEvict [88080:880bf] hit state: 6 (E) writable: 1 readable: 1 dirty: 0 prefetched: 0 | tag: 0x11 secure: 0 valid: 1 | set: 0x2 way: 0
1118063000: system.l2cache: handleTimingReqHit satisfied CleanEvict [88080:880bf], no response needed
1118068000: system.l2cache: sendWriteQueuePacket: write CleanEvict [76f80:76fbf]
1118069000: system.cpu.icache: recvTimingResp: Handling response ReadResp [aef80:aefbf] IF
1118069000: system.cpu.icache: Block for addr 0xaef80 being updated in Cache
1118069000: system.cpu.icache: Create CleanEvict CleanEvict [92f80:92fbf]
1118069000: system.cpu.icache: Block addr 0xaef80 (ns) moving from  to state: 6 (E) writable: 1 readable: 1 dirty: 0 prefetched: 0 | tag: 0x57 secure: 0 valid: 1 | set: 0x3e way: 0x1
1118071000: system.cpu.icache: sendWriteQueuePacket: write CleanEvict [92f80:92fbf]
1118071000: system.l2cache: access for CleanEvict [92f80:92fbf] miss
1118076000: system.cpu.icache: access for ReadReq [aefc0:aefff] IF hit state: 6 (E) writable: 1 readable: 1 dirty: 0 prefetched: 0 | tag: 0x57 secure: 0 valid: 1 | set: 0x3f way: 0
1118078000: system.cpu.dcache: access for ReadReq [93460:93467] hit state: 6 (E) writable: 1 readable: 1 dirty: 0 prefetched: 0 | tag: 0x12 secure: 0 valid: 1 | set: 0xd1 way: 0x1
1118078000: system.cpu.dcache: access for ReadReq [684f0:684f7] hit state: e (M) writable: 1 readable: 1 dirty: 1 prefetched: 0 | tag: 0xd secure: 0 valid: 1 | set: 0x13 way: 0
1118078000: system.cpu.dcache: access for ReadReq [684e8:684ef] hit state: e (M) writable: 1 readable: 1 dirty: 1 prefetched: 0 | tag: 0xd secure: 0 valid: 1 | set: 0x13 way: 0
1118079000: system.cpu.icache: access for ReadReq [aef80:aefbf] IF hit state: 6 (E) writable: 1 readable: 1 dirty: 0 prefetched: 0 | tag: 0x57 secure: 0 valid: 1 | set: 0x3e way: 0x1
1118079000: system.cpu.dcache: access for ReadReq [54c70:54c77] hit state: e (M) writable: 1 readable: 1 dirty: 1 prefetched: 0 | tag: 0xa secure: 0 valid: 1 | set: 0x131 way: 0x1
1118081000: system.cpu.icache: access for ReadReq [aef80:aefbf] IF hit state: 6 (E) writable: 1 readable: 1 dirty: 0 prefetched: 0 | tag: 0x57 secure: 0 valid: 1 | set: 0x3e way: 0x1
1118085000: system.cpu.icache: access for ReadReq [aefc0:aefff] IF hit state: 6 (E) writable: 1 readable: 1 dirty: 0 prefetched: 0 | tag: 0x57 secure: 0 valid: 1 | set: 0x3f way: 0
1118088000: system.cpu.icache: access for ReadReq [99980:999bf] IF hit state: 6 (E) writable: 1 readable: 1 dirty: 0 prefetched: 0 | tag: 0x4c secure: 0 valid: 1 | set: 0x66 way: 0
1118090000: system.cpu.icache: access for ReadReq [999c0:999ff] IF hit state: 6 (E) writable: 1 readable: 1 dirty: 0 prefetched: 0 | tag: 0x4c secure: 0 valid: 1 | set: 0x67 way: 0x1
1118090000: system.cpu.dcache: access for ReadReq [54c78:54c7f] hit state: e (M) writable: 1 readable: 1 dirty: 1 prefetched: 0 | tag: 0xa secure: 0 valid: 1 | set: 0x131 way: 0x1
1118090000: system.cpu.dcache: access for ReadReq [684e8:684ef] hit state: e (M) writable: 1 readable: 1 dirty: 1 prefetched: 0 | tag: 0xd secure: 0 valid: 1 | set: 0x13 way: 0
1118092000: system.l2cache: sendWriteQueuePacket: write CleanEvict [92f80:92fbf]
1118092000: system.cpu.dcache: access for ReadReq [54c88:54c8f] hit state: e (M) writable: 1 readable: 1 dirty: 1 prefetched: 0 | tag: 0xa secure: 0 valid: 1 | set: 0x132 way: 0x1
1118093000: system.cpu.dcache: access for ReadReq [54c90:54c97] hit state: e (M) writable: 1 readable: 1 dirty: 1 prefetched: 0 | tag: 0xa secure: 0 valid: 1 | set: 0x132 way: 0x1
1118094000: system.cpu.dcache: access for ReadReq [54c98:54c9f] hit state: e (M) writable: 1 readable: 1 dirty: 1 prefetched: 0 | tag: 0xa secure: 0 valid: 1 | set: 0x132 way: 0x1
1118095000: system.cpu.dcache: access for ReadReq [54ca0:54ca7] hit state: e (M) writable: 1 readable: 1 dirty: 1 prefetched: 0 | tag: 0xa secure: 0 valid: 1 | set: 0x132 way: 0x1
1118096000: system.cpu.dcache: access for ReadReq [54ca8:54caf] hit state: e (M) writable: 1 readable: 1 dirty: 1 prefetched: 0 | tag: 0xa secure: 0 valid: 1 | set: 0x132 way: 0x1
1118097000: system.cpu.dcache: access for ReadReq [54cb0:54cb7] hit state: e (M) writable: 1 readable: 1 dirty: 1 prefetched: 0 | tag: 0xa secure: 0 valid: 1 | set: 0x132 way: 0x1
1118098000: system.cpu.dcache: access for ReadReq [54cb8:54cbf] hit state: e (M) writable: 1 readable: 1 dirty: 1 prefetched: 0 | tag: 0xa secure: 0 valid: 1 | set: 0x132 way: 0x1
1118106000: system.cpu.dcache: access for WriteReq [54cb8:54cbf] hit state: e (M) writable: 1 readable: 1 dirty: 1 prefetched: 0 | tag: 0xa secure: 0 valid: 1 | set: 0x132 way: 0x1
1118124000: system.cpu.icache: access for ReadReq [ba100:ba13f] IF miss
1118126000: system.cpu.icache: sendMSHRQueuePacket: MSHR ReadReq [ba100:ba13f] IF
1118126000: system.cpu.icache: createMissPacket: created ReadSharedReq [ba100:ba13f] IF from ReadReq [ba100:ba13f] IF
1118126000: system.l2cache: access for ReadSharedReq [ba100:ba13f] IF miss
1118147000: system.l2cache: sendMSHRQueuePacket: MSHR ReadSharedReq [ba100:ba13f] IF
1118147000: system.l2cache: createMissPacket: created ReadSharedReq [ba100:ba13f] IF from ReadSharedReq [ba100:ba13f] IF
1118210000: system.l2cache: recvTimingResp: Handling response ReadResp [ba100:ba13f] IF
1118210000: system.l2cache: Block for addr 0xba100 being updated in Cache
1118210000: system.l2cache: Create Writeback WritebackDirty [a100:a13f] writable: 1, dirty: 1
1118210000: system.l2cache: Block addr 0xba100 (ns) moving from  to state: 6 (E) writable: 1 readable: 1 dirty: 0 prefetched: 0 | tag: 0x17 secure: 0 valid: 1 | set: 0x84 way: 0x3
1118230000: system.l2cache: sendWriteQueuePacket: write WritebackDirty [a100:a13f]
1118231000: system.cpu.icache: recvTimingResp: Handling response ReadResp [ba100:ba13f] IF
1118231000: system.cpu.icache: Block for addr 0xba100 being updated in Cache
1118231000: system.cpu.icache: Create CleanEvict CleanEvict [a6100:a613f]
1118231000: system.cpu.icache: Block addr 0xba100 (ns) moving from  to state: 6 (E) writable: 1 readable: 1 dirty: 0 prefetched: 0 | tag: 0x5d secure: 0 valid: 1 | set: 0x4 way: 0x1
1118233000: system.cpu.icache: sendWriteQueuePacket: write CleanEvict [a6100:a613f]
1118233000: system.l2cache: access for CleanEvict [a6100:a613f] hit state: 6 (E) writable: 1 readable: 1 dirty: 0 prefetched: 0 | tag: 0x14 secure: 0 valid: 1 | set: 0x184 way: 0x2
1118233000: system.l2cache: handleTimingReqHit satisfied CleanEvict [a6100:a613f], no response needed
1118235000: system.cpu.icache: access for ReadReq [ba140:ba17f] IF miss
1118237000: system.cpu.icache: sendMSHRQueuePacket: MSHR ReadReq [ba140:ba17f] IF
1118237000: system.cpu.icache: createMissPacket: created ReadSharedReq [ba140:ba17f] IF from ReadReq [ba140:ba17f] IF
1118237000: system.l2cache: access for ReadSharedReq [ba140:ba17f] IF miss
1118237000: system.cpu.icache: access for ReadReq [ba100:ba13f] IF hit state: 6 (E) writable: 1 readable: 1 dirty: 0 prefetched: 0 | tag: 0x5d secure: 0 valid: 1 | set: 0x4 way: 0x1
1118239000: system.cpu.icache: access for ReadReq [ba140:ba17f] IF miss
1118239000: system.cpu.icache: handleTimingReqMiss coalescing MSHR for ReadReq [ba140:ba17f] IF
1118239000: system.cpu.dcache: access for ReadReq [64e70:64e77] hit state: e (M) writable: 1 readable: 1 dirty: 1 prefetched: 0 | tag: 0xc secure: 0 valid: 1 | set: 0x139 way: 0x1
1118258000: system.l2cache: sendMSHRQueuePacket: MSHR ReadSharedReq [ba140:ba17f] IF
1118258000: system.l2cache: createMissPacket: created ReadSharedReq [ba140:ba17f] IF from ReadSharedReq [ba140:ba17f] IF
1118393000: system.l2cache: recvTimingResp: Handling response ReadResp [ba140:ba17f] IF
1118393000: system.l2cache: Block for addr 0xba140 being updated in Cache
1118393000: system.l2cache: Create CleanEvict CleanEvict [72140:7217f]
1118393000: system.l2cache: Block addr 0xba140 (ns) moving from  to state: 6 (E) writable: 1 readable: 1 dirty: 0 prefetched: 0 | tag: 0x17 secure: 0 valid: 1 | set: 0x85 way: 0x3
1118413000: system.l2cache: sendWriteQueuePacket: write CleanEvict [72140:7217f]
1118414000: system.cpu.icache: recvTimingResp: Handling response ReadResp [ba140:ba17f] IF
1118414000: system.cpu.icache: Block for addr 0xba140 being updated in Cache
1118414000: system.cpu.icache: Create CleanEvict CleanEvict [a6140:a617f]
1118414000: system.cpu.icache: Block addr 0xba140 (ns) moving from  to state: 6 (E) writable: 1 readable: 1 dirty: 0 prefetched: 0 | tag: 0x5d secure: 0 valid: 1 | set: 0x5 way: 0
1118416000: system.cpu.icache: sendWriteQueuePacket: write CleanEvict [a6140:a617f]
1118416000: system.l2cache: access for CleanEvict [a6140:a617f] hit state: 6 (E) writable: 1 readable: 1 dirty: 0 prefetched: 0 | tag: 0x14 secure: 0 valid: 1 | set: 0x185 way: 0x2
1118416000: system.l2cache: handleTimingReqHit satisfied CleanEvict [a6140:a617f], no response needed
1118419000: system.cpu.icache: access for ReadReq [ba180:ba1bf] IF miss
1118421000: system.cpu.icache: sendMSHRQueuePacket: MSHR ReadReq [ba180:ba1bf] IF
1118421000: system.cpu.icache: createMissPacket: created ReadSharedReq [ba180:ba1bf] IF from ReadReq [ba180:ba1bf] IF
1118421000: system.l2cache: access for ReadSharedReq [ba180:ba1bf] IF miss
1118421000: system.cpu.icache: access for ReadReq [ba100:ba13f] IF hit state: 6 (E) writable: 1 readable: 1 dirty: 0 prefetched: 0 | tag: 0x5d secure: 0 valid: 1 | set: 0x4 way: 0x1
1118424000: system.cpu.icache: access for ReadReq [ba140:ba17f] IF hit state: 6 (E) writable: 1 readable: 1 dirty: 0 prefetched: 0 | tag: 0x5d secure: 0 valid: 1 | set: 0x5 way: 0
Exiting @ tick 1118426000 because exiting with last active thread context
